
     RDKit          2D

 34 38  0  0  0  0  0  0  0  0999 V2000
    2.9993    4.6404    0.0000 O   0  0  0  0  0  0  0  0  0  0  0  0
    3.7138    4.2279    0.0000 C   0  0  0  0  0  0  0  0  0  0  0  0
    4.4283    4.6404    0.0000 O   0  0  0  0  0  0  0  0  0  0  0  0
    3.7138    3.4029    0.0000 C   0  0  0  0  0  0  0  0  0  0  0  0
    4.4283    2.9904    0.0000 C   0  0  0  0  0  0  0  0  0  0  0  0
    4.4283    2.1654    0.0000 C   0  0  0  0  0  0  0  0  0  0  0  0
    3.7138    1.7529    0.0000 C   0  0  0  0  0  0  0  0  0  0  0  0
    3.7138    0.9279    0.0000 O   0  0  0  0  0  0  0  0  0  0  0  0
    4.4283    0.5154    0.0000 C   0  0  0  0  0  0  0  0  0  0  0  0
    5.1427    0.9279    0.0000 N   0  0  0  0  0  0  0  0  0  0  0  0
    5.8572    0.5154    0.0000 C   0  0  0  0  0  0  0  0  0  0  0  0
    5.8572   -0.3096    0.0000 C   0  0  0  0  0  0  0  0  0  0  0  0
    5.1427   -0.7221    0.0000 C   0  0  0  0  0  0  0  0  0  0  0  0
    4.4283   -0.3096    0.0000 N   0  0  0  0  0  0  0  0  0  0  0  0
    5.1427   -1.5471    0.0000 C   0  0  0  0  0  0  0  0  0  0  0  0
    5.8102   -2.0320    0.0000 C   0  0  0  0  0  0  0  0  0  0  0  0
    5.5552   -2.8166    0.0000 N   0  0  0  0  0  0  0  0  0  0  0  0
    4.7302   -2.8166    0.0000 C   0  0  0  0  0  0  0  0  0  0  0  0
    4.4753   -2.0320    0.0000 N   0  0  0  0  0  0  0  0  0  0  0  0
    3.6907   -1.7771    0.0000 C   0  0  0  0  0  0  0  0  0  0  0  0
    3.0776   -2.3291    0.0000 C   0  0  0  0  0  0  0  0  0  0  0  0
    2.2930   -2.0741    0.0000 C   0  0  0  0  0  0  0  0  0  0  0  0
    2.1214   -1.2672    0.0000 N   0  0  0  0  0  0  0  0  0  0  0  0
    2.7345   -0.7151    0.0000 C   0  0  0  0  0  0  0  0  0  0  0  0
    3.5191   -0.9701    0.0000 C   0  0  0  0  0  0  0  0  0  0  0  0
    6.5948   -1.7771    0.0000 C   0  0  0  0  0  0  0  0  0  0  0  0
    6.7663   -0.9701    0.0000 C   0  0  0  0  0  0  0  0  0  0  0  0
    7.5509   -0.7151    0.0000 C   0  0  0  0  0  0  0  0  0  0  0  0
    8.1640   -1.2672    0.0000 C   0  0  0  0  0  0  0  0  0  0  0  0
    8.9487   -1.0122    0.0000 F   0  0  0  0  0  0  0  0  0  0  0  0
    7.9925   -2.0741    0.0000 C   0  0  0  0  0  0  0  0  0  0  0  0
    7.2079   -2.3291    0.0000 C   0  0  0  0  0  0  0  0  0  0  0  0
    2.9993    2.1654    0.0000 C   0  0  0  0  0  0  0  0  0  0  0  0
    2.9993    2.9904    0.0000 C   0  0  0  0  0  0  0  0  0  0  0  0
  1  2  1  0
  2  3  2  0
  2  4  1  0
  4  5  2  0
  5  6  1  0
  6  7  2  0
  7  8  1  0
  8  9  1  0
  9 10  2  0
 10 11  1  0
 11 12  2  0
 12 13  1  0
 13 14  2  0
  9 14  1  0
 13 15  1  0
 15 16  2  0
 16 17  1  0
 17 18  2  0
 18 19  1  0
 15 19  1  0
 19 20  1  0
 20 21  1  0
 21 22  1  0
 22 23  1  0
 23 24  1  0
 24 25  1  0
 20 25  1  0
 16 26  1  0
 26 27  2  0
 27 28  1  0
 28 29  2  0
 29 30  1  0
 29 31  1  0
 31 32  2  0
 26 32  1  0
  7 33  1  0
 33 34  2  0
  4 34  1  0
M  END

> <chembl_id>
CHEMBL14233

> <chembl_pref_name>
None

$$$$

     RDKit          2D

 24 25  0  0  0  0  0  0  0  0999 V2000
   -1.6750   -3.1917    0.0000 C   0  0  0  0  0  0  0  0  0  0  0  0
   -2.1625   -3.5417    0.0000 N   0  0  0  0  0  0  0  0  0  0  0  0
   -1.9750   -4.1167    0.0000 C   0  0  0  0  0  0  0  0  0  0  0  0
   -1.1958   -3.5417    0.0000 C   0  0  0  0  0  0  0  0  0  0  0  0
   -1.3750   -4.1167    0.0000 C   0  0  0  0  0  0  0  0  0  0  0  0
   -0.1750   -3.7542    0.0000 C   0  0  0  0  0  0  0  0  0  0  0  0
   -0.6208   -3.3542    0.0000 N   0  0  0  0  0  0  0  0  0  0  0  0
   -1.6833   -2.5917    0.0000 C   0  0  0  0  0  0  0  0  0  0  0  0
   -2.3333   -4.6000    0.0000 C   0  0  0  0  0  0  0  0  0  0  0  0
    0.3917   -3.5750    0.0000 N   0  0  0  0  0  0  0  0  0  0  0  0
   -0.3000   -4.3417    0.0000 O   0  0  0  0  0  0  0  0  0  0  0  0
   -2.1958   -2.2917    0.0000 O   0  0  0  0  0  0  0  0  0  0  0  0
   -2.7458   -3.3792    0.0000 C   0  0  0  0  0  0  0  0  0  0  0  0
   -1.1583   -2.2875    0.0000 O   0  0  0  0  0  0  0  0  0  0  0  0
    0.8417   -3.9750    0.0000 C   0  0  0  0  0  0  0  0  0  0  0  0
   -2.7583   -5.0167    0.0000 C   0  0  0  0  0  0  0  0  0  0  0  0
   -2.9250   -4.5375    0.0000 C   0  0  0  0  0  0  0  0  0  0  0  0
   -2.0875   -5.1500    0.0000 C   0  0  0  0  0  0  0  0  0  0  0  0
   -1.1583   -1.6875    0.0000 C   0  0  0  0  0  0  0  0  0  0  0  0
    0.7125   -4.5625    0.0000 C   0  0  0  0  0  0  0  0  0  0  0  0
    1.4042   -3.7875    0.0000 C   0  0  0  0  0  0  0  0  0  0  0  0
    1.1542   -4.9625    0.0000 C   0  0  0  0  0  0  0  0  0  0  0  0
    1.8500   -4.1792    0.0000 C   0  0  0  0  0  0  0  0  0  0  0  0
    1.7292   -4.7750    0.0000 C   0  0  0  0  0  0  0  0  0  0  0  0
  2  1  1  0
  3  2  1  0
  4  1  2  0
  5  4  1  0
  6  7  1  0
  7  4  1  0
  8  1  1  0
  9  3  1  0
 10  6  1  0
 11  6  2  0
 12  8  2  0
 13  2  1  0
 14  8  1  0
 15 10  1  0
 16  9  1  0
 17  9  1  0
 18  9  1  0
 19 14  1  0
 20 15  2  0
 21 15  1  0
 22 20  1  0
 23 21  2  0
 24 23  1  0
  3  5  2  0
 22 24  2  0
M  END

> <chembl_id>
CHEMBL279342

> <chembl_pref_name>
None

$$$$

     RDKit          2D

 28 30  0  0  0  0  0  0  0  0999 V2000
    2.9552   -9.4155    0.0000 C   0  0  0  0  0  0  0  0  0  0  0  0
    2.2407   -9.8280    0.0000 C   0  0  0  0  0  0  0  0  0  0  0  0
    2.2407  -10.6530    0.0000 C   0  0  0  0  0  0  0  0  0  0  0  0
    2.9552  -11.0655    0.0000 C   0  0  0  0  0  0  0  0  0  0  0  0
    3.6696  -10.6530    0.0000 C   0  0  0  0  0  0  0  0  0  0  0  0
    3.6696   -9.8280    0.0000 C   0  0  0  0  0  0  0  0  0  0  0  0
    2.9552  -11.8905    0.0000 C   0  0  0  0  0  0  0  0  0  0  0  0
    2.2407  -12.3030    0.0000 C   0  0  0  0  0  0  0  0  0  0  0  0
    3.6696  -12.3030    0.0000 O   0  0  0  0  0  0  0  0  0  0  0  0
    1.5262  -11.8905    0.0000 C   0  0  0  0  0  0  0  0  0  0  0  0
    0.8117  -12.3030    0.0000 C   0  0  0  0  0  0  0  0  0  0  0  0
    0.8117  -13.1280    0.0000 N   0  0  0  0  0  0  0  0  0  0  0  0
    1.5262  -13.5405    0.0000 C   0  0  0  0  0  0  0  0  0  0  0  0
    2.2407  -13.1280    0.0000 C   0  0  0  0  0  0  0  0  0  0  0  0
    0.0973  -13.5405    0.0000 O   0  0  0  0  0  0  0  0  0  0  0  0
    2.9552  -13.5405    0.0000 N   0  0  0  0  0  0  0  0  0  0  0  0
    1.5262  -14.3655    0.0000 C   0  0  0  0  0  0  0  0  0  0  0  0
    2.2407  -14.7780    0.0000 C   0  0  0  0  0  0  0  0  0  0  0  0
    2.2407  -15.6030    0.0000 C   0  0  0  0  0  0  0  0  0  0  0  0
    1.5262  -16.0155    0.0000 C   0  0  0  0  0  0  0  0  0  0  0  0
    0.8117  -15.6030    0.0000 C   0  0  0  0  0  0  0  0  0  0  0  0
    0.8117  -14.7780    0.0000 C   0  0  0  0  0  0  0  0  0  0  0  0
    4.3841  -11.0655    0.0000 F   0  0  0  0  0  0  0  0  0  0  0  0
    2.9552   -8.5905    0.0000 F   0  0  0  0  0  0  0  0  0  0  0  0
    0.0973  -14.3655    0.0000 O   0  0  0  0  0  0  0  0  0  0  0  0
   -0.6172  -14.7780    0.0000 C   0  0  0  0  0  0  0  0  0  0  0  0
    0.0973  -16.0155    0.0000 O   0  0  0  0  0  0  0  0  0  0  0  0
   -0.6172  -15.6030    0.0000 C   0  0  0  0  0  0  0  0  0  0  0  0
 13 14  2  0
 14  8  1  0
  4  7  1  0
 12 15  1  0
  3  4  2  0
 14 16  1  0
  7  8  1  0
 13 17  1  0
 17 18  2  0
  7  9  2  0
 18 19  1  0
  4  5  1  0
 19 20  2  0
  8 10  2  0
 20 21  1  0
  2  3  1  0
 21 22  2  0
 22 17  1  0
 10 11  1  0
  5 23  1  0
  5  6  2  0
  1 24  1  0
 11 12  2  0
 22 25  1  0
  6  1  1  0
 25 26  1  0
 12 13  1  0
 21 27  1  0
  1  2  2  0
 27 28  1  0
M  CHG  2  12   1  15  -1
M  END

> <chembl_id>
CHEMBL557912

> <chembl_pref_name>
None

$$$$

     RDKit          2D

 24 27  0  0  0  0  0  0  0  0999 V2000
    4.0417   -1.3667    0.0000 N   0  0  0  0  0  0  0  0  0  0  0  0
    3.2292   -1.2292    0.0000 C   0  0  0  0  0  0  0  0  0  0  0  0
    3.8542   -0.0500    0.0000 N   0  0  0  0  0  0  0  0  0  0  0  0
    3.1125   -0.4125    0.0000 C   0  0  0  0  0  0  0  0  0  0  0  0
    4.4292   -0.6500    0.0000 C   0  0  0  0  0  0  0  0  0  0  0  0
    2.4000    0.0000    0.0000 C   0  0  0  0  0  0  0  0  0  0  0  0
    4.4167   -2.1125    0.0000 C   0  0  0  0  0  0  0  0  0  0  0  0
    2.6667   -1.8292    0.0000 C   0  0  0  0  0  0  0  0  0  0  0  0
    6.3542   -3.7292    0.0000 N   0  0  0  0  0  0  0  0  0  0  0  0
    1.5417   -3.0250    0.0000 N   0  0  0  0  0  0  0  0  0  0  0  0
    2.4000    0.8333    0.0000 C   0  0  0  0  0  0  0  0  0  0  0  0
    1.6792   -0.4125    0.0000 C   0  0  0  0  0  0  0  0  0  0  0  0
    0.9667    0.8250    0.0000 C   0  0  0  0  0  0  0  0  0  0  0  0
    5.4250   -2.0500    0.0000 C   0  0  0  0  0  0  0  0  0  0  0  0
    5.0667   -2.6167    0.0000 C   0  0  0  0  0  0  0  0  0  0  0  0
    1.6792    1.2458    0.0000 C   0  0  0  0  0  0  0  0  0  0  0  0
    0.9667    0.0000    0.0000 C   0  0  0  0  0  0  0  0  0  0  0  0
    0.2500    1.2583    0.0000 F   0  0  0  0  0  0  0  0  0  0  0  0
    5.6792   -3.1792    0.0000 C   0  0  0  0  0  0  0  0  0  0  0  0
    5.3625   -3.7792    0.0000 C   0  0  0  0  0  0  0  0  0  0  0  0
    1.3042   -2.2417    0.0000 C   0  0  0  0  0  0  0  0  0  0  0  0
    2.3292   -3.2125    0.0000 C   0  0  0  0  0  0  0  0  0  0  0  0
    1.8667   -1.6417    0.0000 C   0  0  0  0  0  0  0  0  0  0  0  0
    2.9000   -2.6125    0.0000 C   0  0  0  0  0  0  0  0  0  0  0  0
  2  1  1  0
  3  5  2  0
  4  2  2  0
  5  1  1  0
  6  4  1  0
  7  1  1  0
  8  2  1  0
  9 20  1  0
 10 22  1  0
 11  6  1  0
 12  6  2  0
 13 17  2  0
 14  7  1  0
 15  7  1  0
 16 11  2  0
 17 12  1  0
 18 13  1  0
 19 14  1  0
 20 15  1  0
 21 23  1  0
 22 24  2  0
 23  8  2  0
 24  8  1  0
  3  4  1  0
  9 19  1  0
 21 10  2  0
 16 13  1  0
M  END

> <chembl_id>
CHEMBL279416

> <chembl_pref_name>
VK-19911

$$$$

     RDKit          2D

 31 35  0  0  0  0  0  0  0  0999 V2000
   -3.9126   -4.1905    0.0000 N   0  0  0  0  0  0  0  0  0  0  0  0
   -3.9137   -5.0184    0.0000 C   0  0  0  0  0  0  0  0  0  0  0  0
   -3.1984   -5.4316    0.0000 N   0  0  0  0  0  0  0  0  0  0  0  0
   -3.2002   -3.7774    0.0000 C   0  0  0  0  0  0  0  0  0  0  0  0
   -2.4843   -4.1868    0.0000 C   0  0  0  0  0  0  0  0  0  0  0  0
   -2.4836   -5.0143    0.0000 C   0  0  0  0  0  0  0  0  0  0  0  0
   -1.7678   -5.4255    0.0000 C   0  0  0  0  0  0  0  0  0  0  0  0
   -1.0522   -5.0105    0.0000 C   0  0  0  0  0  0  0  0  0  0  0  0
   -1.0570   -4.1799    0.0000 C   0  0  0  0  0  0  0  0  0  0  0  0
   -1.7734   -3.7724    0.0000 C   0  0  0  0  0  0  0  0  0  0  0  0
   -0.3445   -3.7628    0.0000 C   0  0  0  0  0  0  0  0  0  0  0  0
    0.3703   -4.1747    0.0000 C   0  0  0  0  0  0  0  0  0  0  0  0
    1.0823   -3.7582    0.0000 C   0  0  0  0  0  0  0  0  0  0  0  0
    1.0777   -2.9317    0.0000 C   0  0  0  0  0  0  0  0  0  0  0  0
    0.3552   -2.5235    0.0000 C   0  0  0  0  0  0  0  0  0  0  0  0
   -0.3539   -2.9423    0.0000 C   0  0  0  0  0  0  0  0  0  0  0  0
    1.7995   -4.1670    0.0000 C   0  0  0  0  0  0  0  0  0  0  0  0
    1.8042   -4.9926    0.0000 O   0  0  0  0  0  0  0  0  0  0  0  0
    2.5122   -3.7502    0.0000 N   0  0  0  0  0  0  0  0  0  0  0  0
    3.2295   -4.1590    0.0000 C   0  0  0  0  0  0  0  0  0  0  0  0
    4.6593   -4.9757    0.0000 C   0  0  0  0  0  0  0  0  0  0  0  0
    4.6520   -4.1459    0.0000 C   0  0  0  0  0  0  0  0  0  0  0  0
    3.9350   -3.7409    0.0000 C   0  0  0  0  0  0  0  0  0  0  0  0
   -4.6291   -5.4307    0.0000 N   0  0  0  0  0  0  0  0  0  0  0  0
   -4.6298   -6.2563    0.0000 C   0  0  0  0  0  0  0  0  0  0  0  0
   -1.0732   -2.5371    0.0000 C   0  0  0  0  0  0  0  0  0  0  0  0
    3.9457   -5.3926    0.0000 C   0  0  0  0  0  0  0  0  0  0  0  0
    3.2304   -4.9859    0.0000 C   0  0  0  0  0  0  0  0  0  0  0  0
    2.6226   -5.5404    0.0000 C   0  0  0  0  0  0  0  0  0  0  0  0
    2.9621   -6.2900    0.0000 C   0  0  0  0  0  0  0  0  0  0  0  0
    3.7798   -6.1985    0.0000 C   0  0  0  0  0  0  0  0  0  0  0  0
 14 15  2  0
  1  2  2  0
 15 16  1  0
 16 11  2  0
  7  8  2  0
 13 17  1  0
  5  4  2  0
 17 18  2  0
  8  9  1  0
 17 19  1  0
  4  1  1  0
 19 20  1  0
 20 28  2  0
  9 10  2  0
 27 21  2  0
 10  5  1  0
 21 22  1  0
 22 23  2  0
 23 20  1  0
  9 11  1  0
  2 24  1  0
  2  3  1  0
 24 25  1  0
 11 12  1  0
 16 26  1  0
 27 28  1  0
  5  6  1  0
 12 13  2  0
  3  6  2  0
 13 14  1  0
  6  7  1  0
 28 29  1  0
 29 30  1  0
 30 31  1  0
 31 27  1  0
M  END

> <chembl_id>
CHEMBL427233

> <chembl_pref_name>
None

$$$$

     RDKit          2D

 28 31  0  0  0  0  0  0  0  0999 V2000
   -1.6252    2.3077    0.0000 C   0  0  0  0  0  0  0  0  0  0  0  0
   -2.0681    1.6088    0.0000 C   0  0  0  0  0  0  0  0  0  0  0  0
   -1.6842    0.8780    0.0000 C   0  0  0  0  0  0  0  0  0  0  0  0
   -0.8578    0.8448    0.0000 C   0  0  0  0  0  0  0  0  0  0  0  0
   -0.4166    1.5485    0.0000 C   0  0  0  0  0  0  0  0  0  0  0  0
   -0.8030    2.2765    0.0000 C   0  0  0  0  0  0  0  0  0  0  0  0
    0.4045    1.5193    0.0000 C   0  0  0  0  0  0  0  0  0  0  0  0
    0.7904    0.7889    0.0000 C   0  0  0  0  0  0  0  0  0  0  0  0
    1.6141    0.7588    0.0000 C   0  0  0  0  0  0  0  0  0  0  0  0
    2.0529    1.4585    0.0000 C   0  0  0  0  0  0  0  0  0  0  0  0
    1.6620    2.1899    0.0000 C   0  0  0  0  0  0  0  0  0  0  0  0
    0.8396    2.2163    0.0000 C   0  0  0  0  0  0  0  0  0  0  0  0
    0.4511    2.9441    0.0000 C   0  0  0  0  0  0  0  0  0  0  0  0
   -2.8924    1.6423    0.0000 C   0  0  0  0  0  0  0  0  0  0  0  0
   -3.2756    2.3729    0.0000 O   0  0  0  0  0  0  0  0  0  0  0  0
   -3.3335    0.9452    0.0000 N   0  0  0  0  0  0  0  0  0  0  0  0
   -4.1579    0.9786    0.0000 C   0  0  0  0  0  0  0  0  0  0  0  0
   -4.5990    0.2815    0.0000 C   0  0  0  0  0  0  0  0  0  0  0  0
   -5.3284   -0.1045    0.0000 C   0  0  0  0  0  0  0  0  0  0  0  0
   -4.6313   -0.5456    0.0000 C   0  0  0  0  0  0  0  0  0  0  0  0
    2.0002    0.0298    0.0000 C   0  0  0  0  0  0  0  0  0  0  0  0
    1.5619   -0.6692    0.0000 O   0  0  0  0  0  0  0  0  0  0  0  0
    2.8246   -0.0003    0.0000 N   0  0  0  0  0  0  0  0  0  0  0  0
    3.2108   -0.7294    0.0000 C   0  0  0  0  0  0  0  0  0  0  0  0
    2.8510   -1.4701    0.0000 S   0  0  0  0  0  0  0  0  0  0  0  0
    3.4435   -2.0441    0.0000 C   0  0  0  0  0  0  0  0  0  0  0  0
    4.1726   -1.6579    0.0000 N   0  0  0  0  0  0  0  0  0  0  0  0
    4.0305   -0.8453    0.0000 N   0  0  0  0  0  0  0  0  0  0  0  0
  1  2  2  0
  2 14  1  0
  3  4  2  0
 14 15  2  0
  7  8  2  0
 14 16  1  0
 16 17  1  0
  8  9  1  0
 17 18  1  0
 19 18  1  0
 20 19  1  0
 18 20  1  0
  4  5  1  0
  9 10  2  0
  2  3  1  0
  9 21  1  0
 10 11  1  0
 21 22  2  0
  5  6  2  0
 21 23  1  0
 11 12  2  0
 23 24  1  0
 24 25  1  0
 12  7  1  0
  5  7  1  0
  6  1  1  0
 12 13  1  0
 25 26  1  0
 26 27  2  0
 27 28  1  0
 28 24  2  0
M  END

> <chembl_id>
CHEMBL478650

> <chembl_pref_name>
None

$$$$

     RDKit          2D

 37 41  0  0  0  0  0  0  0  0999 V2000
   -2.5169   -0.4235    0.0000 C   0  0  0  0  0  0  0  0  0  0  0  0
   -1.8005   -0.0102    0.0000 N   0  0  0  0  0  0  0  0  0  0  0  0
   -1.8034    0.8203    0.0000 C   0  0  0  0  0  0  0  0  0  0  0  0
   -2.5187    1.2295    0.0000 C   0  0  0  0  0  0  0  0  0  0  0  0
   -3.2318   -0.0107    0.0000 C   0  0  0  0  0  0  0  0  0  0  0  0
   -3.2322    0.8167    0.0000 C   0  0  0  0  0  0  0  0  0  0  0  0
   -3.9450    1.2278    0.0000 N   0  0  0  0  0  0  0  0  0  0  0  0
   -4.6619    0.8160    0.0000 C   0  0  0  0  0  0  0  0  0  0  0  0
   -4.6615   -0.0114    0.0000 C   0  0  0  0  0  0  0  0  0  0  0  0
   -3.9441   -0.4270    0.0000 C   0  0  0  0  0  0  0  0  0  0  0  0
   -5.3760    1.2292    0.0000 O   0  0  0  0  0  0  0  0  0  0  0  0
   -2.5153   -1.2463    0.0000 C   0  0  0  0  0  0  0  0  0  0  0  0
   -3.2315   -1.6581    0.0000 C   0  0  0  0  0  0  0  0  0  0  0  0
   -3.2320   -2.4823    0.0000 C   0  0  0  0  0  0  0  0  0  0  0  0
   -2.5171   -2.8958    0.0000 C   0  0  0  0  0  0  0  0  0  0  0  0
   -1.8002   -2.4790    0.0000 C   0  0  0  0  0  0  0  0  0  0  0  0
   -1.8031   -1.6562    0.0000 C   0  0  0  0  0  0  0  0  0  0  0  0
   -3.9440    2.0495    0.0000 C   0  0  0  0  0  0  0  0  0  0  0  0
   -3.2275    2.4608    0.0000 C   0  0  0  0  0  0  0  0  0  0  0  0
   -3.2264    3.2850    0.0000 C   0  0  0  0  0  0  0  0  0  0  0  0
   -3.9411    3.6989    0.0000 C   0  0  0  0  0  0  0  0  0  0  0  0
   -4.6583    3.2826    0.0000 C   0  0  0  0  0  0  0  0  0  0  0  0
   -4.6558    2.4598    0.0000 C   0  0  0  0  0  0  0  0  0  0  0  0
   -1.0904    1.2355    0.0000 C   0  0  0  0  0  0  0  0  0  0  0  0
   -0.3709    0.8251    0.0000 C   0  0  0  0  0  0  0  0  0  0  0  0
    0.3399    1.2368    0.0000 C   0  0  0  0  0  0  0  0  0  0  0  0
    0.3411    2.0621    0.0000 N   0  0  0  0  0  0  0  0  0  0  0  0
   -0.3748    2.4741    0.0000 C   0  0  0  0  0  0  0  0  0  0  0  0
   -1.0918    2.0608    0.0000 C   0  0  0  0  0  0  0  0  0  0  0  0
   -5.3695    2.0459    0.0000 Cl  0  0  0  0  0  0  0  0  0  0  0  0
   -2.5138    2.0469    0.0000 Cl  0  0  0  0  0  0  0  0  0  0  0  0
   -1.0897   -1.2419    0.0000 Cl  0  0  0  0  0  0  0  0  0  0  0  0
   -2.5162   -3.7208    0.0000 F   0  0  0  0  0  0  0  0  0  0  0  0
    1.0555    2.4746    0.0000 C   0  0  0  0  0  0  0  0  0  0  0  0
    1.7667    2.8917    0.0000 C   0  0  0  0  0  0  0  0  0  0  0  0
    1.4704    1.7616    0.0000 C   0  0  0  0  0  0  0  0  0  0  0  0
    0.6411    3.1880    0.0000 C   0  0  0  0  0  0  0  0  0  0  0  0
  5 10  1  0
  6  7  1  0
 18 19  2  0
  7  8  1  0
 19 20  1  0
  8  9  1  0
 20 21  2  0
  9 10  2  0
 21 22  1  0
  5  6  2  0
 22 23  2  0
 23 18  1  0
  7 18  1  0
  8 11  2  0
  3 24  1  0
 24 25  1  0
  1  2  2  0
  5  1  1  0
 12 13  2  0
  2  3  1  0
 13 14  1  0
 24 29  1  0
 25 26  1  0
 26 27  1  0
 27 28  1  0
 28 29  1  0
 23 30  1  0
 14 15  2  0
 19 31  1  0
  3  4  2  0
 17 32  1  0
 15 16  1  0
 15 33  1  0
  4  6  1  0
 27 34  1  0
 16 17  2  0
 34 35  1  0
 17 12  1  0
 34 36  1  0
  1 12  1  0
 34 37  1  0
M  END

> <chembl_id>
CHEMBL199291

> <chembl_pref_name>
None

$$$$

     RDKit          2D

 34 38  0  0  0  0  0  0  0  0999 V2000
    2.1167   -0.8792    0.0000 N   0  0  0  0  0  0  0  0  0  0  0  0
    2.8292   -1.2917    0.0000 C   0  0  0  0  0  0  0  0  0  0  0  0
    2.8292   -2.1167    0.0000 C   0  0  0  0  0  0  0  0  0  0  0  0
    1.4042   -1.2917    0.0000 C   0  0  0  0  0  0  0  0  0  0  0  0
    3.5417   -2.5292    0.0000 C   0  0  0  0  0  0  0  0  0  0  0  0
    2.1167   -0.0500    0.0000 C   0  0  0  0  0  0  0  0  0  0  0  0
    3.5417   -3.3542    0.0000 C   0  0  0  0  0  0  0  0  0  0  0  0
    1.4042   -2.1167    0.0000 N   0  0  0  0  0  0  0  0  0  0  0  0
    4.2542   -3.7625    0.0000 C   0  0  0  0  0  0  0  0  0  0  0  0
    2.1167   -2.5292    0.0000 C   0  0  0  0  0  0  0  0  0  0  0  0
    3.5417   -0.8792    0.0000 C   0  0  0  0  0  0  0  0  0  0  0  0
    4.2625   -1.2917    0.0000 C   0  0  0  0  0  0  0  0  0  0  0  0
    4.2625   -2.1167    0.0000 C   0  0  0  0  0  0  0  0  0  0  0  0
    4.2625   -4.5792    0.0000 C   0  0  0  0  0  0  0  0  0  0  0  0
    2.8292   -3.7625    0.0000 C   0  0  0  0  0  0  0  0  0  0  0  0
    4.9750   -0.8792    0.0000 N   0  0  0  0  0  0  0  0  0  0  0  0
    2.8292    0.3625    0.0000 C   0  0  0  0  0  0  0  0  0  0  0  0
    1.4042    0.3625    0.0000 C   0  0  0  0  0  0  0  0  0  0  0  0
    0.6792   -0.8792    0.0000 O   0  0  0  0  0  0  0  0  0  0  0  0
    4.9792    1.5958    0.0000 N   0  0  0  0  0  0  0  0  0  0  0  0
    3.5417   -5.0000    0.0000 C   0  0  0  0  0  0  0  0  0  0  0  0
    4.9667   -3.3417    0.0000 F   0  0  0  0  0  0  0  0  0  0  0  0
    2.8292   -4.5875    0.0000 C   0  0  0  0  0  0  0  0  0  0  0  0
    4.9750   -0.0542    0.0000 C   0  0  0  0  0  0  0  0  0  0  0  0
    3.5542   -0.0625    0.0000 Cl  0  0  0  0  0  0  0  0  0  0  0  0
    0.6792   -0.0542    0.0000 Cl  0  0  0  0  0  0  0  0  0  0  0  0
    3.5417   -5.8250    0.0000 F   0  0  0  0  0  0  0  0  0  0  0  0
    4.2625    0.3583    0.0000 C   0  0  0  0  0  0  0  0  0  0  0  0
    5.6917    0.3583    0.0000 C   0  0  0  0  0  0  0  0  0  0  0  0
    5.6917    1.1833    0.0000 C   0  0  0  0  0  0  0  0  0  0  0  0
    4.2667    1.1833    0.0000 C   0  0  0  0  0  0  0  0  0  0  0  0
    2.1167    1.6083    0.0000 C   0  0  0  0  0  0  0  0  0  0  0  0
    2.8292    1.1958    0.0000 C   0  0  0  0  0  0  0  0  0  0  0  0
    1.4042    1.1875    0.0000 C   0  0  0  0  0  0  0  0  0  0  0  0
  2  1  1  0
  3  2  2  0
  4  1  1  0
  5  3  1  0
  6  1  1  0
  7  5  1  0
  8  4  1  0
  9  7  1  0
 10  8  1  0
 11  2  1  0
 12 11  2  0
 13 12  1  0
 14  9  2  0
 15  7  2  0
 16 12  1  0
 17  6  2  0
 18  6  1  0
 19  4  2  0
 20 30  1  0
 21 23  2  0
 22  9  1  0
 23 15  1  0
 24 16  1  0
 25 17  1  0
 26 18  1  0
 27 21  1  0
 28 24  1  0
 29 24  1  0
 30 29  1  0
 31 28  1  0
 32 34  1  0
 33 17  1  0
 34 18  2  0
 33 32  2  0
 10  3  1  0
  5 13  2  0
 31 20  1  0
 14 21  1  0
M  END

> <chembl_id>
CHEMBL96432

> <chembl_pref_name>
None

$$$$

     RDKit          2D

 25 26  0  0  0  0  0  0  0  0999 V2000
    5.7112  -12.1204    0.0000 C   0  0  0  0  0  0  0  0  0  0  0  0
    6.5286  -12.0300    0.0000 S   0  0  0  0  0  0  0  0  0  0  0  0
    6.6936  -11.2312    0.0000 C   0  0  0  0  0  0  0  0  0  0  0  0
    5.9770  -10.8187    0.0000 C   0  0  0  0  0  0  0  0  0  0  0  0
    5.3694  -11.3794    0.0000 N   0  0  0  0  0  0  0  0  0  0  0  0
    7.3978  -10.8182    0.0000 C   0  0  0  0  0  0  0  0  0  0  0  0
    5.2958  -12.8392    0.0000 N   0  0  0  0  0  0  0  0  0  0  0  0
    7.3971   -9.9955    0.0000 O   0  0  0  0  0  0  0  0  0  0  0  0
    8.1086  -11.2221    0.0000 N   0  0  0  0  0  0  0  0  0  0  0  0
    8.8295  -10.8241    0.0000 C   0  0  0  0  0  0  0  0  0  0  0  0
    9.5358  -11.2488    0.0000 C   0  0  0  0  0  0  0  0  0  0  0  0
   10.2556  -10.8573    0.0000 C   0  0  0  0  0  0  0  0  0  0  0  0
   10.2726  -10.0237    0.0000 C   0  0  0  0  0  0  0  0  0  0  0  0
    9.5679   -9.6012    0.0000 C   0  0  0  0  0  0  0  0  0  0  0  0
    8.8470  -10.0037    0.0000 C   0  0  0  0  0  0  0  0  0  0  0  0
    9.5179  -12.0736    0.0000 C   0  0  0  0  0  0  0  0  0  0  0  0
    9.5806   -8.7763    0.0000 C   0  0  0  0  0  0  0  0  0  0  0  0
   10.3013   -8.3749    0.0000 N   0  0  0  0  0  0  0  0  0  0  0  0
    8.8725   -8.3529    0.0000 O   0  0  0  0  0  0  0  0  0  0  0  0
    5.8853   -9.9988    0.0000 C   0  0  0  0  0  0  0  0  0  0  0  0
    4.4708  -12.8388    0.0000 C   0  0  0  0  0  0  0  0  0  0  0  0
    4.0580  -13.5531    0.0000 C   0  0  0  0  0  0  0  0  0  0  0  0
    3.2330  -13.5527    0.0000 C   0  0  0  0  0  0  0  0  0  0  0  0
   11.0093   -8.7983    0.0000 C   0  0  0  0  0  0  0  0  0  0  0  0
   11.7301   -8.3969    0.0000 C   0  0  0  0  0  0  0  0  0  0  0  0
  3  6  1  0
 12 13  2  0
 13 14  1  0
  1  7  1  0
 14 15  2  0
 15 10  1  0
  2  3  1  0
 11 16  1  0
  6  8  2  0
 14 17  1  0
  3  4  2  0
 17 18  1  0
  6  9  1  0
 17 19  2  0
  4  5  1  0
  4 20  1  0
  9 10  1  0
  7 21  1  0
  5  1  2  0
 21 22  1  0
 10 11  2  0
 22 23  1  0
  1  2  1  0
 18 24  1  0
 11 12  1  0
 24 25  1  0
M  END

> <chembl_id>
CHEMBL404446

> <chembl_pref_name>
None

$$$$

     RDKit          2D

 38 42  0  0  0  0  0  0  0  0999 V2000
   -3.4590   -1.4152    0.0000 N   0  0  0  0  0  0  0  0  0  0  0  0
   -4.2840   -1.4140    0.0000 C   0  0  0  0  0  0  0  0  0  0  0  0
   -4.6976   -2.1279    0.0000 C   0  0  0  0  0  0  0  0  0  0  0  0
   -3.0455   -0.7013    0.0000 C   0  0  0  0  0  0  0  0  0  0  0  0
   -0.2294   -1.5319    0.0000 N   0  0  0  0  0  0  0  0  0  0  0  0
    0.4870   -1.1185    0.0000 C   0  0  0  0  0  0  0  0  0  0  0  0
    0.4841   -0.2880    0.0000 N   0  0  0  0  0  0  0  0  0  0  0  0
   -0.2313    0.1211    0.0000 C   0  0  0  0  0  0  0  0  0  0  0  0
   -0.9443   -1.1190    0.0000 N   0  0  0  0  0  0  0  0  0  0  0  0
   -0.9430   -0.2901    0.0000 C   0  0  0  0  0  0  0  0  0  0  0  0
   -1.7310   -0.0327    0.0000 C   0  0  0  0  0  0  0  0  0  0  0  0
   -2.2193   -0.7026    0.0000 C   0  0  0  0  0  0  0  0  0  0  0  0
   -1.7330   -1.3739    0.0000 C   0  0  0  0  0  0  0  0  0  0  0  0
   -1.9847    0.7523    0.0000 C   0  0  0  0  0  0  0  0  0  0  0  0
   -0.2331    0.9461    0.0000 N   0  0  0  0  0  0  0  0  0  0  0  0
    0.4805    1.3602    0.0000 C   0  0  0  0  0  0  0  0  0  0  0  0
    1.1928    0.9463    0.0000 C   0  0  0  0  0  0  0  0  0  0  0  0
    1.9059    1.3597    0.0000 C   0  0  0  0  0  0  0  0  0  0  0  0
    1.9045    2.1856    0.0000 C   0  0  0  0  0  0  0  0  0  0  0  0
    1.1841    2.5963    0.0000 C   0  0  0  0  0  0  0  0  0  0  0  0
    0.4740    2.1806    0.0000 C   0  0  0  0  0  0  0  0  0  0  0  0
   -0.2434    2.5881    0.0000 C   0  0  0  0  0  0  0  0  0  0  0  0
    2.6210    0.9484    0.0000 N   0  0  0  0  0  0  0  0  0  0  0  0
    3.3348    1.3621    0.0000 C   0  0  0  0  0  0  0  0  0  0  0  0
    4.0500    0.9509    0.0000 C   0  0  0  0  0  0  0  0  0  0  0  0
    3.3334    2.1871    0.0000 O   0  0  0  0  0  0  0  0  0  0  0  0
    4.0486    0.1281    0.0000 C   0  0  0  0  0  0  0  0  0  0  0  0
    4.7630   -0.2831    0.0000 C   0  0  0  0  0  0  0  0  0  0  0  0
    5.4777    0.1307    0.0000 N   0  0  0  0  0  0  0  0  0  0  0  0
    5.4736    0.9599    0.0000 C   0  0  0  0  0  0  0  0  0  0  0  0
    4.7587    1.3674    0.0000 C   0  0  0  0  0  0  0  0  0  0  0  0
   -3.4569    0.0138    0.0000 O   0  0  0  0  0  0  0  0  0  0  0  0
    6.1859    1.3762    0.0000 N   0  0  0  0  0  0  0  0  0  0  0  0
    6.9021    0.9621    0.0000 C   0  0  0  0  0  0  0  0  0  0  0  0
    7.6123    1.3748    0.0000 C   0  0  0  0  0  0  0  0  0  0  0  0
    7.6122    2.2002    0.0000 O   0  0  0  0  0  0  0  0  0  0  0  0
    6.8957    2.6111    0.0000 C   0  0  0  0  0  0  0  0  0  0  0  0
    6.1793    2.1967    0.0000 C   0  0  0  0  0  0  0  0  0  0  0  0
 18 19  2  0
  9  5  1  0
 19 20  1  0
  2  3  1  0
 20 21  2  0
 21 16  1  0
  5  6  2  0
 21 22  1  0
  2  1  1  0
 18 23  1  0
 10 11  2  0
 23 24  1  0
 11 12  1  0
 24 25  1  0
 12 13  2  0
 24 26  2  0
 13  9  1  0
 25 27  2  0
  6  7  1  0
 27 28  1  0
 11 14  1  0
 28 29  2  0
  1  4  1  0
 29 30  1  0
  8 15  1  0
 30 31  2  0
 31 25  1  0
 12  4  1  0
  7  8  2  0
  4 32  2  0
 15 16  1  0
 30 33  1  0
 33 34  1  0
  8 10  1  0
 16 17  2  0
  9 10  1  0
 17 18  1  0
 33 38  1  0
 34 35  1  0
 35 36  1  0
 36 37  1  0
 37 38  1  0
M  END

> <chembl_id>
CHEMBL262608

> <chembl_pref_name>
None

$$$$

     RDKit          2D

 35 39  0  0  0  0  0  0  0  0999 V2000
   -1.7309    6.9020    0.0000 C   0  0  0  0  0  0  0  0  0  0  0  0
   -1.7309    7.7270    0.0000 C   0  0  0  0  0  0  0  0  0  0  0  0
   -2.4454    8.1395    0.0000 C   0  0  0  0  0  0  0  0  0  0  0  0
   -2.4454    8.9645    0.0000 C   0  0  0  0  0  0  0  0  0  0  0  0
   -1.7309    9.3770    0.0000 C   0  0  0  0  0  0  0  0  0  0  0  0
   -1.7309   10.2020    0.0000 N   0  0  0  0  0  0  0  0  0  0  0  0
   -2.4454   10.6145    0.0000 C   0  0  0  0  0  0  0  0  0  0  0  0
   -3.1599   10.2020    0.0000 O   0  0  0  0  0  0  0  0  0  0  0  0
   -2.4454   11.4395    0.0000 C   0  0  0  0  0  0  0  0  0  0  0  0
   -3.1599   11.8520    0.0000 C   0  0  0  0  0  0  0  0  0  0  0  0
   -3.1599   12.6770    0.0000 C   0  0  0  0  0  0  0  0  0  0  0  0
   -2.4454   13.0895    0.0000 N   0  0  0  0  0  0  0  0  0  0  0  0
   -1.7309   12.6770    0.0000 C   0  0  0  0  0  0  0  0  0  0  0  0
   -1.7309   11.8520    0.0000 C   0  0  0  0  0  0  0  0  0  0  0  0
   -1.0164   13.0895    0.0000 N   0  0  0  0  0  0  0  0  0  0  0  0
   -1.0164   13.9145    0.0000 C   0  0  0  0  0  0  0  0  0  0  0  0
   -0.3020   14.3270    0.0000 C   0  0  0  0  0  0  0  0  0  0  0  0
    0.4125   13.9145    0.0000 O   0  0  0  0  0  0  0  0  0  0  0  0
    0.4125   13.0895    0.0000 C   0  0  0  0  0  0  0  0  0  0  0  0
   -0.3020   12.6770    0.0000 C   0  0  0  0  0  0  0  0  0  0  0  0
   -1.0164    8.9645    0.0000 C   0  0  0  0  0  0  0  0  0  0  0  0
   -1.0164    8.1395    0.0000 C   0  0  0  0  0  0  0  0  0  0  0  0
   -0.3020    7.7270    0.0000 C   0  0  0  0  0  0  0  0  0  0  0  0
    0.4125    8.1395    0.0000 C   0  0  0  0  0  0  0  0  0  0  0  0
    1.1270    7.7270    0.0000 C   0  0  0  0  0  0  0  0  0  0  0  0
    1.1270    6.9020    0.0000 C   0  0  0  0  0  0  0  0  0  0  0  0
    0.4125    6.4895    0.0000 C   0  0  0  0  0  0  0  0  0  0  0  0
   -0.3020    6.9020    0.0000 C   0  0  0  0  0  0  0  0  0  0  0  0
    1.8414    6.4895    0.0000 C   0  0  0  0  0  0  0  0  0  0  0  0
    2.5559    6.9020    0.0000 O   0  0  0  0  0  0  0  0  0  0  0  0
    1.8414    5.6645    0.0000 N   0  0  0  0  0  0  0  0  0  0  0  0
    2.5559    5.2520    0.0000 C   0  0  0  0  0  0  0  0  0  0  0  0
    2.5559    4.4270    0.0000 C   0  0  0  0  0  0  0  0  0  0  0  0
    2.9684    3.7125    0.0000 C   0  0  0  0  0  0  0  0  0  0  0  0
    2.1434    3.7125    0.0000 C   0  0  0  0  0  0  0  0  0  0  0  0
  1  2  1  0
  2  3  2  0
  3  4  1  0
  4  5  2  0
  5  6  1  0
  6  7  1  0
  7  8  2  0
  7  9  1  0
  9 10  2  0
 10 11  1  0
 11 12  2  0
 12 13  1  0
 13 14  2  0
  9 14  1  0
 13 15  1  0
 15 16  1  0
 16 17  1  0
 17 18  1  0
 18 19  1  0
 19 20  1  0
 15 20  1  0
  5 21  1  0
 21 22  2  0
  2 22  1  0
 22 23  1  0
 23 24  2  0
 24 25  1  0
 25 26  2  0
 26 27  1  0
 27 28  2  0
 23 28  1  0
 26 29  1  0
 29 30  2  0
 29 31  1  0
 31 32  1  0
 32 33  1  0
 33 34  1  0
 34 35  1  0
 33 35  1  0
M  END

> <chembl_id>
CHEMBL476351

> <chembl_pref_name>
GW775608X

$$$$

     RDKit          2D

 28 30  0  0  0  0  0  0  0  0999 V2000
    1.4625    1.5958    0.0000 C   0  0  0  0  0  0  0  0  0  0  0  0
    0.4167    0.7625    0.0000 N   0  0  0  0  0  0  0  0  0  0  0  0
    0.7750    2.0500    0.0000 C   0  0  0  0  0  0  0  0  0  0  0  0
    1.2417    0.8000    0.0000 N   0  0  0  0  0  0  0  0  0  0  0  0
    0.1292    1.5333    0.0000 C   0  0  0  0  0  0  0  0  0  0  0  0
    2.2542    1.8083    0.0000 N   0  0  0  0  0  0  0  0  0  0  0  0
    2.8375    1.2208    0.0000 C   0  0  0  0  0  0  0  0  0  0  0  0
   -0.6708    1.7458    0.0000 C   0  0  0  0  0  0  0  0  0  0  0  0
    3.6292    1.4250    0.0000 N   0  0  0  0  0  0  0  0  0  0  0  0
    2.6167    0.4333    0.0000 O   0  0  0  0  0  0  0  0  0  0  0  0
    5.9667   -0.8792    0.0000 S   0  0  0  0  0  0  0  0  0  0  0  0
    4.2042    0.8458    0.0000 C   0  0  0  0  0  0  0  0  0  0  0  0
    5.3750   -0.3167    0.0000 C   0  0  0  0  0  0  0  0  0  0  0  0
    5.7750   -1.6750    0.0000 C   0  0  0  0  0  0  0  0  0  0  0  0
    5.4042   -3.2750    0.0000 C   0  0  0  0  0  0  0  0  0  0  0  0
    1.7542    0.1500    0.0000 C   0  0  0  0  0  0  0  0  0  0  0  0
    3.9917    0.0458    0.0000 C   0  0  0  0  0  0  0  0  0  0  0  0
    5.0042    1.0583    0.0000 C   0  0  0  0  0  0  0  0  0  0  0  0
    5.5875    0.4708    0.0000 C   0  0  0  0  0  0  0  0  0  0  0  0
    4.9917   -1.9125    0.0000 C   0  0  0  0  0  0  0  0  0  0  0  0
    4.5667   -0.5375    0.0000 C   0  0  0  0  0  0  0  0  0  0  0  0
    6.3750   -2.2375    0.0000 C   0  0  0  0  0  0  0  0  0  0  0  0
    6.1917   -3.0292    0.0000 C   0  0  0  0  0  0  0  0  0  0  0  0
    4.8000   -2.7125    0.0000 C   0  0  0  0  0  0  0  0  0  0  0  0
    5.2167   -4.0792    0.0000 O   0  0  0  0  0  0  0  0  0  0  0  0
   -0.8833    0.9458    0.0000 C   0  0  0  0  0  0  0  0  0  0  0  0
   -1.4708    1.9583    0.0000 C   0  0  0  0  0  0  0  0  0  0  0  0
   -0.4583    2.5458    0.0000 C   0  0  0  0  0  0  0  0  0  0  0  0
  2  4  1  0
  3  1  2  0
  4  1  1  0
  5  3  1  0
  6  1  1  0
  7  6  1  0
  8  5  1  0
  9  7  1  0
 10  7  2  0
 11 13  1  0
 12  9  1  0
 13 19  1  0
 14 11  1  0
 15 23  1  0
 16  4  1  0
 17 12  2  0
 18 12  1  0
 19 18  2  0
 20 14  2  0
 21 17  1  0
 22 14  1  0
 23 22  2  0
 24 20  1  0
 25 15  1  0
 26  8  1  0
 27  8  1  0
 28  8  1  0
  5  2  2  0
 21 13  2  0
 24 15  2  0
M  END

> <chembl_id>
CHEMBL290971

> <chembl_pref_name>
None

$$$$

     RDKit          2D

 33 36  0  0  0  0  0  0  0  0999 V2000
    3.1402   -7.7667    0.0000 C   0  0  0  0  0  0  0  0  0  0  0  0
    3.1391   -8.5940    0.0000 C   0  0  0  0  0  0  0  0  0  0  0  0
    3.8539   -9.0069    0.0000 C   0  0  0  0  0  0  0  0  0  0  0  0
    4.5703   -8.5936    0.0000 C   0  0  0  0  0  0  0  0  0  0  0  0
    4.5675   -7.7630    0.0000 C   0  0  0  0  0  0  0  0  0  0  0  0
    3.8521   -7.3539    0.0000 C   0  0  0  0  0  0  0  0  0  0  0  0
    5.2855   -9.0049    0.0000 N   0  0  0  0  0  0  0  0  0  0  0  0
    5.9993   -8.5913    0.0000 C   0  0  0  0  0  0  0  0  0  0  0  0
    6.7110   -9.0031    0.0000 N   0  0  0  0  0  0  0  0  0  0  0  0
    6.7034   -7.3531    0.0000 C   0  0  0  0  0  0  0  0  0  0  0  0
    5.9930   -7.7684    0.0000 N   0  0  0  0  0  0  0  0  0  0  0  0
    7.4235   -7.7643    0.0000 C   0  0  0  0  0  0  0  0  0  0  0  0
    7.4224   -8.5899    0.0000 C   0  0  0  0  0  0  0  0  0  0  0  0
    8.1357   -9.0018    0.0000 N   0  0  0  0  0  0  0  0  0  0  0  0
    8.8505   -8.5893    0.0000 C   0  0  0  0  0  0  0  0  0  0  0  0
    8.8476   -7.7606    0.0000 C   0  0  0  0  0  0  0  0  0  0  0  0
    8.1338   -7.3524    0.0000 C   0  0  0  0  0  0  0  0  0  0  0  0
    8.1355   -9.8268    0.0000 C   0  0  0  0  0  0  0  0  0  0  0  0
    9.5657   -9.0006    0.0000 O   0  0  0  0  0  0  0  0  0  0  0  0
    9.5555   -7.3467    0.0000 C   0  0  0  0  0  0  0  0  0  0  0  0
   10.2719   -7.7581    0.0000 C   0  0  0  0  0  0  0  0  0  0  0  0
   10.9843   -7.3436    0.0000 C   0  0  0  0  0  0  0  0  0  0  0  0
   10.9815   -6.5177    0.0000 C   0  0  0  0  0  0  0  0  0  0  0  0
   10.2605   -6.1081    0.0000 C   0  0  0  0  0  0  0  0  0  0  0  0
    9.5510   -6.5250    0.0000 C   0  0  0  0  0  0  0  0  0  0  0  0
    8.8339   -6.1173    0.0000 Cl  0  0  0  0  0  0  0  0  0  0  0  0
   10.2742   -8.5831    0.0000 Cl  0  0  0  0  0  0  0  0  0  0  0  0
    2.4257   -7.3543    0.0000 N   0  0  0  0  0  0  0  0  0  0  0  0
    1.7113   -7.7670    0.0000 C   0  0  0  0  0  0  0  0  0  0  0  0
    0.9967   -7.3547    0.0000 C   0  0  0  0  0  0  0  0  0  0  0  0
    0.2824   -7.7673    0.0000 C   0  0  0  0  0  0  0  0  0  0  0  0
   -0.4322   -7.3550    0.0000 O   0  0  0  0  0  0  0  0  0  0  0  0
    0.9965   -6.5297    0.0000 O   0  0  0  0  0  0  0  0  0  0  0  0
 16 17  2  0
 17 12  1  0
 14 18  1  0
  8  9  1  0
 15 19  2  0
  9 13  2  0
  4  5  1  0
 20 21  2  0
 12 10  2  0
 21 22  1  0
  2  3  1  0
 22 23  2  0
 10 11  1  0
 23 24  1  0
 11  8  2  0
 24 25  2  0
 25 20  1  0
 16 20  1  0
  5  6  2  0
 25 26  1  0
  6  1  1  0
 21 27  1  0
 12 13  1  0
  1 28  1  0
  1  2  2  0
 28 29  1  0
 13 14  1  0
 29 30  1  0
  4  7  1  0
 14 15  1  0
 30 31  1  0
  3  4  2  0
 15 16  1  0
 31 32  1  0
  7  8  1  0
 30 33  1  0
M  END

> <chembl_id>
CHEMBL567068

> <chembl_pref_name>
None

$$$$

     RDKit          2D

 29 32  0  0  0  0  0  0  0  0999 V2000
    7.4623  -15.2756    0.0000 C   0  0  0  0  0  0  0  0  0  0  0  0
    7.0194  -15.9745    0.0000 C   0  0  0  0  0  0  0  0  0  0  0  0
    7.4033  -16.7053    0.0000 C   0  0  0  0  0  0  0  0  0  0  0  0
    8.2297  -16.7385    0.0000 C   0  0  0  0  0  0  0  0  0  0  0  0
    8.6709  -16.0348    0.0000 C   0  0  0  0  0  0  0  0  0  0  0  0
    8.2845  -15.3068    0.0000 C   0  0  0  0  0  0  0  0  0  0  0  0
    9.4920  -16.0640    0.0000 C   0  0  0  0  0  0  0  0  0  0  0  0
    9.8779  -16.7945    0.0000 C   0  0  0  0  0  0  0  0  0  0  0  0
   10.7016  -16.8245    0.0000 C   0  0  0  0  0  0  0  0  0  0  0  0
   11.1404  -16.1249    0.0000 C   0  0  0  0  0  0  0  0  0  0  0  0
   10.7495  -15.3935    0.0000 C   0  0  0  0  0  0  0  0  0  0  0  0
    9.9271  -15.3670    0.0000 C   0  0  0  0  0  0  0  0  0  0  0  0
    9.5386  -14.6392    0.0000 C   0  0  0  0  0  0  0  0  0  0  0  0
    6.1951  -15.9410    0.0000 C   0  0  0  0  0  0  0  0  0  0  0  0
    5.8119  -15.2104    0.0000 O   0  0  0  0  0  0  0  0  0  0  0  0
    5.7540  -16.6382    0.0000 N   0  0  0  0  0  0  0  0  0  0  0  0
    4.9296  -16.6047    0.0000 C   0  0  0  0  0  0  0  0  0  0  0  0
    4.4885  -17.3018    0.0000 C   0  0  0  0  0  0  0  0  0  0  0  0
    3.7591  -17.6878    0.0000 C   0  0  0  0  0  0  0  0  0  0  0  0
    4.4562  -18.1290    0.0000 C   0  0  0  0  0  0  0  0  0  0  0  0
   11.0877  -17.5536    0.0000 N   0  0  0  0  0  0  0  0  0  0  0  0
   10.6494  -18.2525    0.0000 C   0  0  0  0  0  0  0  0  0  0  0  0
   11.0355  -18.9816    0.0000 C   0  0  0  0  0  0  0  0  0  0  0  0
    9.8249  -18.2224    0.0000 O   0  0  0  0  0  0  0  0  0  0  0  0
   10.5937  -19.6767    0.0000 C   0  0  0  0  0  0  0  0  0  0  0  0
   10.9792  -20.4053    0.0000 C   0  0  0  0  0  0  0  0  0  0  0  0
   11.8045  -20.4359    0.0000 C   0  0  0  0  0  0  0  0  0  0  0  0
   12.2428  -19.7319    0.0000 C   0  0  0  0  0  0  0  0  0  0  0  0
   11.8549  -19.0062    0.0000 C   0  0  0  0  0  0  0  0  0  0  0  0
  2 14  1  0
  3  4  2  0
 14 15  2  0
  7  8  2  0
 14 16  1  0
 16 17  1  0
  8  9  1  0
 17 18  1  0
 19 18  1  0
 20 19  1  0
 18 20  1  0
  4  5  1  0
  9 10  2  0
  2  3  1  0
  9 21  1  0
 10 11  1  0
 21 22  1  0
  5  6  2  0
 22 23  1  0
 11 12  2  0
 22 24  2  0
 12  7  1  0
 23 25  2  0
  5  7  1  0
 25 26  1  0
  6  1  1  0
 26 27  2  0
 12 13  1  0
 27 28  1  0
  1  2  2  0
 28 29  2  0
 29 23  1  0
M  END

> <chembl_id>
CHEMBL478421

> <chembl_pref_name>
None

$$$$

     RDKit          2D

 25 28  0  0  0  0  0  0  0  0999 V2000
    4.6641   -3.8867    0.0000 N   0  0  0  0  0  0  0  0  0  0  0  0
    4.9208   -4.6750    0.0000 N   0  0  0  0  0  0  0  0  0  0  0  0
    5.7500   -4.6750    0.0000 C   0  0  0  0  0  0  0  0  0  0  0  0
    5.3375   -3.4000    0.0000 C   0  0  0  0  0  0  0  0  0  0  0  0
    6.0053   -3.8869    0.0000 N   0  0  0  0  0  0  0  0  0  0  0  0
    6.7588   -3.5519    0.0000 C   0  0  0  0  0  0  0  0  0  0  0  0
    6.8456   -2.7302    0.0000 C   0  0  0  0  0  0  0  0  0  0  0  0
    6.1729   -2.2447    0.0000 C   0  0  0  0  0  0  0  0  0  0  0  0
    5.4221   -2.5824    0.0000 C   0  0  0  0  0  0  0  0  0  0  0  0
    7.6006   -2.3916    0.0000 C   0  0  0  0  0  0  0  0  0  0  0  0
    8.3152   -2.8044    0.0000 O   0  0  0  0  0  0  0  0  0  0  0  0
    8.9283   -2.2511    0.0000 C   0  0  0  0  0  0  0  0  0  0  0  0
    8.5901   -1.4974    0.0000 N   0  0  0  0  0  0  0  0  0  0  0  0
    7.7691   -1.5874    0.0000 C   0  0  0  0  0  0  0  0  0  0  0  0
    7.2180   -0.9788    0.0000 C   0  0  0  0  0  0  0  0  0  0  0  0
    7.4716   -0.1926    0.0000 C   0  0  0  0  0  0  0  0  0  0  0  0
    6.9181    0.4181    0.0000 C   0  0  0  0  0  0  0  0  0  0  0  0
    6.1108    0.2439    0.0000 C   0  0  0  0  0  0  0  0  0  0  0  0
    5.8600   -0.5466    0.0000 C   0  0  0  0  0  0  0  0  0  0  0  0
    6.4152   -1.1539    0.0000 C   0  0  0  0  0  0  0  0  0  0  0  0
    5.5557    0.8542    0.0000 F   0  0  0  0  0  0  0  0  0  0  0  0
    6.2352   -5.3423    0.0000 C   0  0  0  0  0  0  0  0  0  0  0  0
    6.8167   -5.9250    0.0000 C   0  0  0  0  0  0  0  0  0  0  0  0
    5.6077   -5.8779    0.0000 C   0  0  0  0  0  0  0  0  0  0  0  0
    6.8640   -4.8083    0.0000 C   0  0  0  0  0  0  0  0  0  0  0  0
  2  3  2  0
 10 11  1  0
 12 13  2  0
 13 14  1  0
 14 10  2  0
  7 10  1  0
  6  7  2  0
  3  5  1  0
 15 16  2  0
  7  8  1  0
 16 17  1  0
  1  2  1  0
 17 18  2  0
  8  9  2  0
 18 19  1  0
  9  4  1  0
 19 20  2  0
 20 15  1  0
 14 15  1  0
 11 12  1  0
 18 21  1  0
  3 22  1  0
  4  5  1  0
 22 23  1  0
  4  1  2  0
 22 24  1  0
  5  6  1  0
 22 25  1  0
M  END

> <chembl_id>
CHEMBL379394

> <chembl_pref_name>
None

$$$$

     RDKit          2D

 33 37  0  0  0  0  0  0  0  0999 V2000
    7.8173  -22.5536    0.0000 C   0  0  0  0  0  0  0  0  0  0  0  0
    7.8160  -23.3812    0.0000 C   0  0  0  0  0  0  0  0  0  0  0  0
    8.5289  -23.7941    0.0000 C   0  0  0  0  0  0  0  0  0  0  0  0
    9.2482  -23.3807    0.0000 C   0  0  0  0  0  0  0  0  0  0  0  0
    9.2451  -22.5496    0.0000 C   0  0  0  0  0  0  0  0  0  0  0  0
    8.5270  -22.1409    0.0000 C   0  0  0  0  0  0  0  0  0  0  0  0
    7.1010  -23.7927    0.0000 N   0  0  0  0  0  0  0  0  0  0  0  0
    7.0998  -24.6177    0.0000 C   0  0  0  0  0  0  0  0  0  0  0  0
    7.0963  -26.2646    0.0000 N   0  0  0  0  0  0  0  0  0  0  0  0
    7.8136  -25.8487    0.0000 C   0  0  0  0  0  0  0  0  0  0  0  0
    7.8117  -25.0260    0.0000 N   0  0  0  0  0  0  0  0  0  0  0  0
    6.3818  -25.8503    0.0000 C   0  0  0  0  0  0  0  0  0  0  0  0
    6.3813  -25.0252    0.0000 C   0  0  0  0  0  0  0  0  0  0  0  0
    5.5965  -24.7708    0.0000 C   0  0  0  0  0  0  0  0  0  0  0  0
    5.1118  -25.4387    0.0000 N   0  0  0  0  0  0  0  0  0  0  0  0
    5.5973  -26.1058    0.0000 N   0  0  0  0  0  0  0  0  0  0  0  0
    5.1789  -26.8160    0.0000 C   0  0  0  0  0  0  0  0  0  0  0  0
    4.3536  -26.8060    0.0000 C   0  0  0  0  0  0  0  0  0  0  0  0
    3.9353  -27.5154    0.0000 C   0  0  0  0  0  0  0  0  0  0  0  0
    4.3413  -28.2339    0.0000 C   0  0  0  0  0  0  0  0  0  0  0  0
    5.1699  -28.2385    0.0000 C   0  0  0  0  0  0  0  0  0  0  0  0
    5.5844  -27.5285    0.0000 C   0  0  0  0  0  0  0  0  0  0  0  0
    7.1025  -22.1418    0.0000 C   0  0  0  0  0  0  0  0  0  0  0  0
    9.9631  -23.7925    0.0000 C   0  0  0  0  0  0  0  0  0  0  0  0
    9.9638  -24.6174    0.0000 O   0  0  0  0  0  0  0  0  0  0  0  0
   10.6772  -23.3793    0.0000 N   0  0  0  0  0  0  0  0  0  0  0  0
   10.6764  -22.5544    0.0000 C   0  0  0  0  0  0  0  0  0  0  0  0
   11.3411  -22.0696    0.0000 C   0  0  0  0  0  0  0  0  0  0  0  0
   11.0855  -21.2852    0.0000 C   0  0  0  0  0  0  0  0  0  0  0  0
   10.2604  -21.2860    0.0000 N   0  0  0  0  0  0  0  0  0  0  0  0
   10.0063  -22.0708    0.0000 N   0  0  0  0  0  0  0  0  0  0  0  0
    9.7749  -20.6191    0.0000 C   0  0  0  0  0  0  0  0  0  0  0  0
   10.1096  -19.8651    0.0000 C   0  0  0  0  0  0  0  0  0  0  0  0
 15 16  1  0
 16 12  1  0
  7  8  1  0
 16 17  1  0
  8 13  2  0
 17 18  2  0
 18 19  1  0
 12  9  2  0
 19 20  2  0
  4  5  1  0
 20 21  1  0
  9 10  1  0
 21 22  2  0
 22 17  1  0
  2  3  1  0
  1 23  1  0
 10 11  2  0
  4 24  1  0
 11  8  1  0
 24 25  2  0
 12 13  1  0
 24 26  1  0
  5  6  2  0
 26 27  1  0
 27 28  1  0
  6  1  1  0
  1  2  2  0
  2  7  1  0
  3  4  2  0
 28 29  2  0
 29 30  1  0
 30 31  1  0
 31 27  2  0
 13 14  1  0
 30 32  1  0
 14 15  2  0
 32 33  1  0
M  END

> <chembl_id>
CHEMBL258974

> <chembl_pref_name>
None

$$$$

     RDKit          2D

 26 28  0  0  0  0  0  0  0  0999 V2000
   18.6164   -3.9090    0.0000 C   0  0  0  0  0  0  0  0  0  0  0  0
   18.1736   -4.6078    0.0000 C   0  0  0  0  0  0  0  0  0  0  0  0
   18.5574   -5.3387    0.0000 C   0  0  0  0  0  0  0  0  0  0  0  0
   19.3839   -5.3718    0.0000 C   0  0  0  0  0  0  0  0  0  0  0  0
   19.8250   -4.6681    0.0000 C   0  0  0  0  0  0  0  0  0  0  0  0
   19.4387   -3.9402    0.0000 C   0  0  0  0  0  0  0  0  0  0  0  0
   20.6462   -4.6973    0.0000 C   0  0  0  0  0  0  0  0  0  0  0  0
   21.0320   -5.4278    0.0000 C   0  0  0  0  0  0  0  0  0  0  0  0
   21.8557   -5.4578    0.0000 C   0  0  0  0  0  0  0  0  0  0  0  0
   22.2945   -4.7582    0.0000 C   0  0  0  0  0  0  0  0  0  0  0  0
   21.9037   -4.0268    0.0000 C   0  0  0  0  0  0  0  0  0  0  0  0
   21.0812   -4.0003    0.0000 C   0  0  0  0  0  0  0  0  0  0  0  0
   20.6928   -3.2725    0.0000 C   0  0  0  0  0  0  0  0  0  0  0  0
   17.3493   -4.5744    0.0000 C   0  0  0  0  0  0  0  0  0  0  0  0
   16.9661   -3.8437    0.0000 O   0  0  0  0  0  0  0  0  0  0  0  0
   16.9081   -5.2715    0.0000 N   0  0  0  0  0  0  0  0  0  0  0  0
   16.0838   -5.2380    0.0000 C   0  0  0  0  0  0  0  0  0  0  0  0
   15.6426   -5.9352    0.0000 C   0  0  0  0  0  0  0  0  0  0  0  0
   14.9132   -6.3212    0.0000 C   0  0  0  0  0  0  0  0  0  0  0  0
   15.6104   -6.7623    0.0000 C   0  0  0  0  0  0  0  0  0  0  0  0
   22.2419   -6.1869    0.0000 N   0  0  0  0  0  0  0  0  0  0  0  0
   21.8036   -6.8858    0.0000 C   0  0  0  0  0  0  0  0  0  0  0  0
   22.1897   -7.6149    0.0000 C   0  0  0  0  0  0  0  0  0  0  0  0
   20.9791   -6.8557    0.0000 O   0  0  0  0  0  0  0  0  0  0  0  0
   21.7514   -8.3138    0.0000 C   0  0  0  0  0  0  0  0  0  0  0  0
   22.1375   -9.0429    0.0000 C   0  0  0  0  0  0  0  0  0  0  0  0
  6  1  1  0
 12 13  1  0
  1  2  2  0
  2 14  1  0
  3  4  2  0
 14 15  2  0
  7  8  2  0
 14 16  1  0
 16 17  1  0
  8  9  1  0
 17 18  1  0
 19 18  1  0
 20 19  1  0
 18 20  1  0
  4  5  1  0
  9 10  2  0
  2  3  1  0
  9 21  1  0
 10 11  1  0
 21 22  1  0
  5  6  2  0
 22 23  1  0
 11 12  2  0
 22 24  2  0
 12  7  1  0
 23 25  1  0
  5  7  1  0
 25 26  1  0
M  END

> <chembl_id>
CHEMBL476533

> <chembl_pref_name>
None

$$$$

     RDKit          2D

 28 30  0  0  0  0  0  0  0  0999 V2000
    1.1542    1.5333    0.0000 C   0  0  0  0  0  0  0  0  0  0  0  0
    0.0667    0.7625    0.0000 N   0  0  0  0  0  0  0  0  0  0  0  0
    0.4917    2.0250    0.0000 C   0  0  0  0  0  0  0  0  0  0  0  0
    0.8917    0.7583    0.0000 N   0  0  0  0  0  0  0  0  0  0  0  0
   -0.1833    1.5458    0.0000 C   0  0  0  0  0  0  0  0  0  0  0  0
    1.9667    1.6958    0.0000 N   0  0  0  0  0  0  0  0  0  0  0  0
    2.5042    1.0750    0.0000 C   0  0  0  0  0  0  0  0  0  0  0  0
   -0.9708    1.7958    0.0000 C   0  0  0  0  0  0  0  0  0  0  0  0
    3.3167    1.2375    0.0000 N   0  0  0  0  0  0  0  0  0  0  0  0
    2.2417    0.3000    0.0000 O   0  0  0  0  0  0  0  0  0  0  0  0
    6.8792   -3.8542    0.0000 N   0  0  0  0  0  0  0  0  0  0  0  0
    5.2292   -2.0167    0.0000 S   0  0  0  0  0  0  0  0  0  0  0  0
    3.8542    0.6125    0.0000 C   0  0  0  0  0  0  0  0  0  0  0  0
    5.7792   -2.6375    0.0000 C   0  0  0  0  0  0  0  0  0  0  0  0
    5.4917   -1.2375    0.0000 C   0  0  0  0  0  0  0  0  0  0  0  0
    4.9417   -0.6167    0.0000 C   0  0  0  0  0  0  0  0  0  0  0  0
    1.3667    0.0708    0.0000 C   0  0  0  0  0  0  0  0  0  0  0  0
    4.6625    0.7750    0.0000 C   0  0  0  0  0  0  0  0  0  0  0  0
    3.5917   -0.1667    0.0000 C   0  0  0  0  0  0  0  0  0  0  0  0
    6.5792   -2.4625    0.0000 C   0  0  0  0  0  0  0  0  0  0  0  0
    5.5167   -3.4167    0.0000 C   0  0  0  0  0  0  0  0  0  0  0  0
    4.1417   -0.7875    0.0000 C   0  0  0  0  0  0  0  0  0  0  0  0
    5.2042    0.1583    0.0000 C   0  0  0  0  0  0  0  0  0  0  0  0
    6.0750   -4.0292    0.0000 C   0  0  0  0  0  0  0  0  0  0  0  0
    7.1292   -3.0667    0.0000 C   0  0  0  0  0  0  0  0  0  0  0  0
   -1.2208    1.0083    0.0000 C   0  0  0  0  0  0  0  0  0  0  0  0
   -1.7583    2.0500    0.0000 C   0  0  0  0  0  0  0  0  0  0  0  0
   -0.7125    2.5833    0.0000 C   0  0  0  0  0  0  0  0  0  0  0  0
  2  4  1  0
  3  1  2  0
  4  1  1  0
  5  3  1  0
  6  1  1  0
  7  6  1  0
  8  5  1  0
  9  7  1  0
 10  7  2  0
 11 24  2  0
 12 15  1  0
 13  9  1  0
 14 12  1  0
 15 16  1  0
 16 22  2  0
 17  4  1  0
 18 13  1  0
 19 13  2  0
 20 14  1  0
 21 14  2  0
 22 19  1  0
 23 18  2  0
 24 21  1  0
 25 20  2  0
 26  8  1  0
 27  8  1  0
 28  8  1  0
  5  2  2  0
 16 23  1  0
 11 25  1  0
M  END

> <chembl_id>
CHEMBL40138

> <chembl_pref_name>
None

$$$$

     RDKit          2D

 21 22  0  0  0  0  0  0  0  0999 V2000
   -0.0333   -0.8375    0.0000 C   0  0  0  0  0  0  0  0  0  0  0  0
   -0.0208   -1.6625    0.0000 C   0  0  0  0  0  0  0  0  0  0  0  0
   -0.8125   -0.5875    0.0000 C   0  0  0  0  0  0  0  0  0  0  0  0
    1.4667   -1.8042    0.0000 C   0  0  0  0  0  0  0  0  0  0  0  0
   -0.8083   -1.9250    0.0000 N   0  0  0  0  0  0  0  0  0  0  0  0
    0.6917   -2.0750    0.0000 N   0  0  0  0  0  0  0  0  0  0  0  0
   -1.2958   -1.2542    0.0000 O   0  0  0  0  0  0  0  0  0  0  0  0
    3.6125   -2.2125    0.0000 C   0  0  0  0  0  0  0  0  0  0  0  0
    2.1792   -2.2167    0.0000 N   0  0  0  0  0  0  0  0  0  0  0  0
    2.8917   -1.8042    0.0000 C   0  0  0  0  0  0  0  0  0  0  0  0
   -1.3208    0.0708    0.0000 C   0  0  0  0  0  0  0  0  0  0  0  0
    1.5542   -0.9875    0.0000 O   0  0  0  0  0  0  0  0  0  0  0  0
    4.3167   -1.7917    0.0000 C   0  0  0  0  0  0  0  0  0  0  0  0
    3.6125   -3.0375    0.0000 Cl  0  0  0  0  0  0  0  0  0  0  0  0
    5.0375   -2.2042    0.0000 Cl  0  0  0  0  0  0  0  0  0  0  0  0
    2.8875   -0.9792    0.0000 C   0  0  0  0  0  0  0  0  0  0  0  0
    3.5917   -0.5625    0.0000 C   0  0  0  0  0  0  0  0  0  0  0  0
   -1.0083    0.8333    0.0000 C   0  0  0  0  0  0  0  0  0  0  0  0
   -2.1333   -0.0417    0.0000 C   0  0  0  0  0  0  0  0  0  0  0  0
   -1.7333    0.7833    0.0000 C   0  0  0  0  0  0  0  0  0  0  0  0
    4.3167   -0.9667    0.0000 C   0  0  0  0  0  0  0  0  0  0  0  0
  2  1  1  0
  3  1  2  0
  4  6  1  0
  5  2  2  0
  6  2  1  0
  7  3  1  0
  8 10  2  0
  9  4  1  0
 10  9  1  0
 11  3  1  0
 12  4  2  0
 13  8  1  0
 14  8  1  0
 15 13  1  0
 16 10  1  0
 17 16  2  0
 18 11  1  0
 19 11  1  0
 20 11  1  0
 21 17  1  0
  5  7  1  0
 21 13  2  0
M  END

> <chembl_id>
CHEMBL302379

> <chembl_pref_name>
None

$$$$

     RDKit          2D

 28 30  0  0  0  0  0  0  0  0999 V2000
    1.6417   -1.5125    0.0000 N   0  0  0  0  0  0  0  0  0  0  0  0
    2.4292   -1.8875    0.0000 C   0  0  0  0  0  0  0  0  0  0  0  0
    3.8625   -1.8792    0.0000 C   0  0  0  0  0  0  0  0  0  0  0  0
    0.9292   -1.9292    0.0000 C   0  0  0  0  0  0  0  0  0  0  0  0
    1.6042   -0.6875    0.0000 C   0  0  0  0  0  0  0  0  0  0  0  0
    4.5750   -1.4667    0.0000 C   0  0  0  0  0  0  0  0  0  0  0  0
    3.1417   -1.4667    0.0000 C   0  0  0  0  0  0  0  0  0  0  0  0
    4.5667   -0.6417    0.0000 C   0  0  0  0  0  0  0  0  0  0  0  0
    5.2875   -1.8792    0.0000 C   0  0  0  0  0  0  0  0  0  0  0  0
    3.8625   -2.7125    0.0000 C   0  0  0  0  0  0  0  0  0  0  0  0
    0.9292   -2.7542    0.0000 C   0  0  0  0  0  0  0  0  0  0  0  0
    0.2167   -1.5167    0.0000 C   0  0  0  0  0  0  0  0  0  0  0  0
    2.4292   -2.7125    0.0000 C   0  0  0  0  0  0  0  0  0  0  0  0
    0.8792   -0.3042    0.0000 O   0  0  0  0  0  0  0  0  0  0  0  0
    5.2750   -0.2292    0.0000 C   0  0  0  0  0  0  0  0  0  0  0  0
    3.1417   -3.1250    0.0000 C   0  0  0  0  0  0  0  0  0  0  0  0
    2.3042   -0.2417    0.0000 N   0  0  0  0  0  0  0  0  0  0  0  0
    5.9917   -0.6375    0.0000 C   0  0  0  0  0  0  0  0  0  0  0  0
    6.0000   -1.4667    0.0000 C   0  0  0  0  0  0  0  0  0  0  0  0
    1.6500   -3.1667    0.0000 Cl  0  0  0  0  0  0  0  0  0  0  0  0
    0.2125   -0.6917    0.0000 Cl  0  0  0  0  0  0  0  0  0  0  0  0
    6.7042   -0.2167    0.0000 F   0  0  0  0  0  0  0  0  0  0  0  0
    3.8500   -0.2417    0.0000 C   0  0  0  0  0  0  0  0  0  0  0  0
    4.5792   -3.9500    0.0000 O   0  0  0  0  0  0  0  0  0  0  0  0
    4.5792   -3.1250    0.0000 C   0  0  0  0  0  0  0  0  0  0  0  0
   -0.4958   -2.7542    0.0000 C   0  0  0  0  0  0  0  0  0  0  0  0
   -0.4958   -1.9292    0.0000 C   0  0  0  0  0  0  0  0  0  0  0  0
    0.2167   -3.1667    0.0000 C   0  0  0  0  0  0  0  0  0  0  0  0
  2  1  1  0
  3  7  2  0
  4  1  1  0
  5  1  1  0
  6  3  1  0
  7  2  1  0
  8  6  1  0
  9  6  2  0
 10 16  2  0
 11  4  1  0
 12  4  2  0
 13  2  2  0
 14  5  2  0
 15  8  2  0
 16 13  1  0
 17  5  1  0
 18 19  2  0
 19  9  1  0
 20 11  1  0
 21 12  1  0
 22 18  1  0
 23  8  1  0
 24 25  1  0
 25 10  1  0
 26 27  2  0
 27 12  1  0
 28 11  2  0
 26 28  1  0
 10  3  1  0
 15 18  1  0
M  END

> <chembl_id>
CHEMBL62794

> <chembl_pref_name>
None

$$$$

     RDKit          2D

 26 29  0  0  0  0  0  0  0  0999 V2000
    4.5183  -11.9451    0.0000 N   0  0  0  0  0  0  0  0  0  0  0  0
    4.7750  -12.7334    0.0000 N   0  0  0  0  0  0  0  0  0  0  0  0
    5.6041  -12.7334    0.0000 C   0  0  0  0  0  0  0  0  0  0  0  0
    5.1916  -11.4583    0.0000 C   0  0  0  0  0  0  0  0  0  0  0  0
    5.8595  -11.9453    0.0000 N   0  0  0  0  0  0  0  0  0  0  0  0
    6.6129  -11.6102    0.0000 C   0  0  0  0  0  0  0  0  0  0  0  0
    6.6998  -10.7885    0.0000 C   0  0  0  0  0  0  0  0  0  0  0  0
    6.0271  -10.3030    0.0000 C   0  0  0  0  0  0  0  0  0  0  0  0
    5.2763  -10.6407    0.0000 C   0  0  0  0  0  0  0  0  0  0  0  0
    7.4547  -10.4499    0.0000 C   0  0  0  0  0  0  0  0  0  0  0  0
    8.1693  -10.8628    0.0000 O   0  0  0  0  0  0  0  0  0  0  0  0
    8.7825  -10.3095    0.0000 C   0  0  0  0  0  0  0  0  0  0  0  0
    8.4443   -9.5557    0.0000 N   0  0  0  0  0  0  0  0  0  0  0  0
    7.6233   -9.6457    0.0000 C   0  0  0  0  0  0  0  0  0  0  0  0
    6.0893  -13.4006    0.0000 C   0  0  0  0  0  0  0  0  0  0  0  0
    5.7541  -14.1544    0.0000 C   0  0  0  0  0  0  0  0  0  0  0  0
    6.9098  -13.3140    0.0000 C   0  0  0  0  0  0  0  0  0  0  0  0
    7.0721   -9.0372    0.0000 C   0  0  0  0  0  0  0  0  0  0  0  0
    7.3258   -8.2510    0.0000 C   0  0  0  0  0  0  0  0  0  0  0  0
    6.7723   -7.6402    0.0000 C   0  0  0  0  0  0  0  0  0  0  0  0
    5.9650   -7.8145    0.0000 C   0  0  0  0  0  0  0  0  0  0  0  0
    5.7142   -8.6049    0.0000 C   0  0  0  0  0  0  0  0  0  0  0  0
    6.2694   -9.2123    0.0000 C   0  0  0  0  0  0  0  0  0  0  0  0
    5.4099   -7.2042    0.0000 F   0  0  0  0  0  0  0  0  0  0  0  0
    8.1323   -8.0773    0.0000 F   0  0  0  0  0  0  0  0  0  0  0  0
    6.0195   -9.9985    0.0000 F   0  0  0  0  0  0  0  0  0  0  0  0
 10 11  1  0
 12 13  2  0
 13 14  1  0
 14 10  2  0
  7 10  1  0
  6  7  2  0
  3 15  1  0
  3  5  1  0
 15 16  1  0
  7  8  1  0
 15 17  1  0
  1  2  1  0
  8  9  2  0
 18 19  2  0
  9  4  1  0
 19 20  1  0
 11 12  1  0
 20 21  2  0
 21 22  1  0
  4  5  1  0
 22 23  2  0
 23 18  1  0
 14 18  1  0
  4  1  2  0
 21 24  1  0
  5  6  1  0
 19 25  1  0
  2  3  2  0
 23 26  1  0
M  END

> <chembl_id>
CHEMBL210060

> <chembl_pref_name>
None

$$$$

     RDKit          2D

 34 37  0  0  0  0  0  0  0  0999 V2000
    9.3076   -1.4152    0.0000 N   0  0  0  0  0  0  0  0  0  0  0  0
    8.4826   -1.4140    0.0000 C   0  0  0  0  0  0  0  0  0  0  0  0
    8.0691   -2.1279    0.0000 C   0  0  0  0  0  0  0  0  0  0  0  0
    9.7212   -0.7013    0.0000 C   0  0  0  0  0  0  0  0  0  0  0  0
   12.5372   -1.5319    0.0000 N   0  0  0  0  0  0  0  0  0  0  0  0
   13.2537   -1.1185    0.0000 C   0  0  0  0  0  0  0  0  0  0  0  0
   13.2508   -0.2880    0.0000 N   0  0  0  0  0  0  0  0  0  0  0  0
   12.5354    0.1211    0.0000 C   0  0  0  0  0  0  0  0  0  0  0  0
   11.8224   -1.1190    0.0000 N   0  0  0  0  0  0  0  0  0  0  0  0
   11.8236   -0.2901    0.0000 C   0  0  0  0  0  0  0  0  0  0  0  0
   11.0357   -0.0327    0.0000 C   0  0  0  0  0  0  0  0  0  0  0  0
   10.5474   -0.7026    0.0000 C   0  0  0  0  0  0  0  0  0  0  0  0
   11.0337   -1.3739    0.0000 C   0  0  0  0  0  0  0  0  0  0  0  0
   10.7819    0.7523    0.0000 C   0  0  0  0  0  0  0  0  0  0  0  0
   12.5336    0.9461    0.0000 N   0  0  0  0  0  0  0  0  0  0  0  0
   13.2472    1.3602    0.0000 C   0  0  0  0  0  0  0  0  0  0  0  0
   13.9594    0.9463    0.0000 C   0  0  0  0  0  0  0  0  0  0  0  0
   14.6725    1.3597    0.0000 C   0  0  0  0  0  0  0  0  0  0  0  0
   14.6712    2.1856    0.0000 C   0  0  0  0  0  0  0  0  0  0  0  0
   13.9508    2.5963    0.0000 C   0  0  0  0  0  0  0  0  0  0  0  0
   13.2406    2.1806    0.0000 C   0  0  0  0  0  0  0  0  0  0  0  0
   12.5233    2.5881    0.0000 C   0  0  0  0  0  0  0  0  0  0  0  0
   15.3877    0.9484    0.0000 N   0  0  0  0  0  0  0  0  0  0  0  0
   16.1015    1.3621    0.0000 C   0  0  0  0  0  0  0  0  0  0  0  0
   16.8166    0.9509    0.0000 C   0  0  0  0  0  0  0  0  0  0  0  0
   16.1000    2.1871    0.0000 O   0  0  0  0  0  0  0  0  0  0  0  0
   16.8153    0.1281    0.0000 C   0  0  0  0  0  0  0  0  0  0  0  0
   17.5296   -0.2831    0.0000 C   0  0  0  0  0  0  0  0  0  0  0  0
   18.2444    0.1307    0.0000 C   0  0  0  0  0  0  0  0  0  0  0  0
   18.2403    0.9599    0.0000 C   0  0  0  0  0  0  0  0  0  0  0  0
   17.5254    1.3674    0.0000 C   0  0  0  0  0  0  0  0  0  0  0  0
    9.3098    0.0138    0.0000 O   0  0  0  0  0  0  0  0  0  0  0  0
   18.9601   -0.2797    0.0000 C   0  0  0  0  0  0  0  0  0  0  0  0
   19.6708   -0.6917    0.0000 N   0  0  0  0  0  0  0  0  0  0  0  0
 16 17  2  0
  9 10  1  0
 17 18  1  0
 18 19  2  0
  9  5  1  0
 19 20  1  0
  2  3  1  0
 20 21  2  0
 21 16  1  0
  5  6  2  0
 21 22  1  0
  2  1  1  0
 18 23  1  0
 10 11  2  0
 23 24  1  0
 11 12  1  0
 24 25  1  0
 12 13  2  0
 24 26  2  0
 13  9  1  0
 25 27  2  0
  6  7  1  0
 27 28  1  0
 11 14  1  0
 28 29  2  0
  1  4  1  0
 29 30  1  0
  8 15  1  0
 30 31  2  0
 31 25  1  0
 12  4  1  0
  7  8  2  0
  4 32  2  0
 15 16  1  0
 29 33  1  0
  8 10  1  0
 33 34  3  0
M  END

> <chembl_id>
CHEMBL261061

> <chembl_pref_name>
None

$$$$

     RDKit          2D

 33 35  0  0  0  0  0  0  0  0999 V2000
   -1.9891  -22.1893    0.0000 C   0  0  0  0  0  0  0  0  0  0  0  0
   -1.9903  -23.0167    0.0000 N   0  0  0  0  0  0  0  0  0  0  0  0
   -1.2754  -23.4296    0.0000 C   0  0  0  0  0  0  0  0  0  0  0  0
   -0.5588  -23.0163    0.0000 N   0  0  0  0  0  0  0  0  0  0  0  0
   -0.5617  -22.1856    0.0000 C   0  0  0  0  0  0  0  0  0  0  0  0
   -1.2772  -21.7765    0.0000 N   0  0  0  0  0  0  0  0  0  0  0  0
    0.1512  -21.7704    0.0000 N   0  0  0  0  0  0  0  0  0  0  0  0
    0.8673  -22.1802    0.0000 C   0  0  0  0  0  0  0  0  0  0  0  0
    0.8671  -23.0030    0.0000 C   0  0  0  0  0  0  0  0  0  0  0  0
    1.5823  -23.4127    0.0000 C   0  0  0  0  0  0  0  0  0  0  0  0
    2.2963  -22.9975    0.0000 C   0  0  0  0  0  0  0  0  0  0  0  0
    2.2905  -22.1681    0.0000 C   0  0  0  0  0  0  0  0  0  0  0  0
    1.5746  -21.7621    0.0000 C   0  0  0  0  0  0  0  0  0  0  0  0
    1.5673  -20.9371    0.0000 C   0  0  0  0  0  0  0  0  0  0  0  0
    1.5850  -24.2378    0.0000 C   0  0  0  0  0  0  0  0  0  0  0  0
    0.8719  -24.6527    0.0000 O   0  0  0  0  0  0  0  0  0  0  0  0
    2.3009  -24.6480    0.0000 N   0  0  0  0  0  0  0  0  0  0  0  0
   -2.7037  -21.7769    0.0000 N   0  0  0  0  0  0  0  0  0  0  0  0
   -1.2793  -24.2478    0.0000 N   0  0  0  0  0  0  0  0  0  0  0  0
   -3.4182  -22.1896    0.0000 C   0  0  0  0  0  0  0  0  0  0  0  0
   -2.7039  -20.9518    0.0000 C   0  0  0  0  0  0  0  0  0  0  0  0
   -4.1327  -21.7773    0.0000 C   0  0  0  0  0  0  0  0  0  0  0  0
   -4.8504  -21.3643    0.0000 C   0  0  0  0  0  0  0  0  0  0  0  0
   -3.7208  -21.0624    0.0000 C   0  0  0  0  0  0  0  0  0  0  0  0
   -4.5422  -22.4935    0.0000 C   0  0  0  0  0  0  0  0  0  0  0  0
    3.0140  -24.2331    0.0000 O   0  0  0  0  0  0  0  0  0  0  0  0
    3.7299  -24.6433    0.0000 C   0  0  0  0  0  0  0  0  0  0  0  0
   -1.9916  -24.6523    0.0000 C   0  0  0  0  0  0  0  0  0  0  0  0
   -1.9975  -25.4669    0.0000 C   0  0  0  0  0  0  0  0  0  0  0  0
   -1.2926  -25.8832    0.0000 N   0  0  0  0  0  0  0  0  0  0  0  0
   -0.5803  -25.4787    0.0000 C   0  0  0  0  0  0  0  0  0  0  0  0
   -0.5727  -24.6579    0.0000 C   0  0  0  0  0  0  0  0  0  0  0  0
   -1.2997  -26.7083    0.0000 C   0  0  0  0  0  0  0  0  0  0  0  0
 15 16  2  0
  7  8  1  0
 15 17  1  0
  1 18  1  0
  3 19  1  0
  8  9  2  0
  4  5  1  0
 18 20  1  0
  9 10  1  0
 18 21  1  0
  2  3  1  0
 20 22  1  0
 10 11  2  0
 22 23  1  0
  5  6  2  0
 22 24  1  0
 11 12  1  0
 22 25  1  0
  6  1  1  0
 17 26  1  0
 12 13  2  0
 26 27  1  0
 19 28  1  0
 13  8  1  0
  1  2  2  0
 13 14  1  0
  5  7  1  0
 10 15  1  0
 19 32  1  0
 28 29  1  0
 29 30  1  0
 30 31  1  0
 31 32  1  0
  3  4  2  0
 30 33  1  0
M  END

> <chembl_id>
CHEMBL222098

> <chembl_pref_name>
None

$$$$

     RDKit          2D

 33 36  0  0  0  0  0  0  0  0999 V2000
   13.9427   -6.1328    0.0000 C   0  0  0  0  0  0  0  0  0  0  0  0
   14.6572   -5.7203    0.0000 S   0  0  0  0  0  0  0  0  0  0  0  0
   15.3677   -5.2995    0.0000 O   0  0  0  0  0  0  0  0  0  0  0  0
   15.0737   -6.4325    0.0000 O   0  0  0  0  0  0  0  0  0  0  0  0
   14.2400   -5.0086    0.0000 O   0  0  0  0  0  0  0  0  0  0  0  0
    8.6776   -4.5451    0.0000 C   0  0  0  0  0  0  0  0  0  0  0  0
    9.1614   -5.2111    0.0000 N   0  0  0  0  0  0  0  0  0  0  0  0
    9.9436   -4.9556    0.0000 C   0  0  0  0  0  0  0  0  0  0  0  0
    9.9415   -4.1289    0.0000 C   0  0  0  0  0  0  0  0  0  0  0  0
    9.1595   -3.8716    0.0000 N   0  0  0  0  0  0  0  0  0  0  0  0
    7.8461   -4.5847    0.0000 C   0  0  0  0  0  0  0  0  0  0  0  0
    7.4033   -3.8867    0.0000 C   0  0  0  0  0  0  0  0  0  0  0  0
    6.5799   -3.9168    0.0000 C   0  0  0  0  0  0  0  0  0  0  0  0
    6.1984   -4.6484    0.0000 C   0  0  0  0  0  0  0  0  0  0  0  0
    6.6381   -5.3472    0.0000 C   0  0  0  0  0  0  0  0  0  0  0  0
    7.4642   -5.3135    0.0000 C   0  0  0  0  0  0  0  0  0  0  0  0
    7.7805   -3.1394    0.0000 F   0  0  0  0  0  0  0  0  0  0  0  0
    7.9097   -6.0171    0.0000 F   0  0  0  0  0  0  0  0  0  0  0  0
   10.6553   -5.3635    0.0000 C   0  0  0  0  0  0  0  0  0  0  0  0
   10.6553   -6.1887    0.0000 C   0  0  0  0  0  0  0  0  0  0  0  0
   11.3690   -6.5996    0.0000 C   0  0  0  0  0  0  0  0  0  0  0  0
   12.0830   -6.1862    0.0000 C   0  0  0  0  0  0  0  0  0  0  0  0
   12.0790   -5.3579    0.0000 C   0  0  0  0  0  0  0  0  0  0  0  0
   11.3648   -4.9508    0.0000 C   0  0  0  0  0  0  0  0  0  0  0  0
   10.6510   -3.7134    0.0000 C   0  0  0  0  0  0  0  0  0  0  0  0
   11.3664   -4.1249    0.0000 C   0  0  0  0  0  0  0  0  0  0  0  0
   11.3560   -2.4766    0.0000 C   0  0  0  0  0  0  0  0  0  0  0  0
   10.6470   -2.8926    0.0000 C   0  0  0  0  0  0  0  0  0  0  0  0
   12.0761   -2.8861    0.0000 C   0  0  0  0  0  0  0  0  0  0  0  0
   12.0799   -3.7105    0.0000 C   0  0  0  0  0  0  0  0  0  0  0  0
   12.8651   -3.9616    0.0000 N   0  0  0  0  0  0  0  0  0  0  0  0
   13.3466   -3.2925    0.0000 C   0  0  0  0  0  0  0  0  0  0  0  0
   12.8589   -2.6279    0.0000 N   0  0  0  0  0  0  0  0  0  0  0  0
  1  2  1  0
  2  3  1  0
  2  4  2  0
  2  5  2  0
 11 12  2  0
  7  8  1  0
 19 20  2  0
 12 13  1  0
 20 21  1  0
  8  9  2  0
 21 22  2  0
 13 14  2  0
 22 23  1  0
  9 10  1  0
 23 24  2  0
 24 19  1  0
  8 19  1  0
 14 15  1  0
 10  6  1  0
 25 26  2  0
 26 30  1  0
 15 16  2  0
 29 27  1  0
 16 11  1  0
 27 28  2  0
 28 25  1  0
  9 25  1  0
 29 30  2  0
  6 11  1  0
  6  7  2  0
 12 17  1  0
 16 18  1  0
 30 31  1  0
 31 32  1  0
 32 33  2  0
 33 29  1  0
M  END

> <chembl_id>
CHEMBL272535

> <chembl_pref_name>
None

$$$$

     RDKit          2D

 36 40  0  0  0  0  0  0  0  0999 V2000
   11.8011   -4.4160    0.0000 C   0  0  0  0  0  0  0  0  0  0  0  0
   10.9890   -4.5613    0.0000 N   0  0  0  0  0  0  0  0  0  0  0  0
   10.7088   -5.3372    0.0000 C   0  0  0  0  0  0  0  0  0  0  0  0
   11.2407   -5.9679    0.0000 N   0  0  0  0  0  0  0  0  0  0  0  0
   12.0528   -5.8226    0.0000 C   0  0  0  0  0  0  0  0  0  0  0  0
   12.3330   -5.0466    0.0000 N   0  0  0  0  0  0  0  0  0  0  0  0
   12.5847   -6.4532    0.0000 N   0  0  0  0  0  0  0  0  0  0  0  0
   12.3045   -7.2292    0.0000 C   0  0  0  0  0  0  0  0  0  0  0  0
   12.8364   -7.8598    0.0000 C   0  0  0  0  0  0  0  0  0  0  0  0
   12.5562   -8.6358    0.0000 C   0  0  0  0  0  0  0  0  0  0  0  0
   11.7441   -8.7811    0.0000 C   0  0  0  0  0  0  0  0  0  0  0  0
   11.2122   -8.1504    0.0000 C   0  0  0  0  0  0  0  0  0  0  0  0
   11.4924   -7.3745    0.0000 C   0  0  0  0  0  0  0  0  0  0  0  0
   10.9605   -6.7438    0.0000 C   0  0  0  0  0  0  0  0  0  0  0  0
   13.0881   -9.2664    0.0000 C   0  0  0  0  0  0  0  0  0  0  0  0
   12.8079  -10.0424    0.0000 O   0  0  0  0  0  0  0  0  0  0  0  0
   13.9002   -9.1211    0.0000 N   0  0  0  0  0  0  0  0  0  0  0  0
   12.0813   -3.6400    0.0000 N   0  0  0  0  0  0  0  0  0  0  0  0
   11.5494   -3.0094    0.0000 C   0  0  0  0  0  0  0  0  0  0  0  0
   11.8296   -2.2334    0.0000 C   0  0  0  0  0  0  0  0  0  0  0  0
   10.8603   -2.2334    0.0000 C   0  0  0  0  0  0  0  0  0  0  0  0
   10.7209   -1.4223    0.0000 C   0  0  0  0  0  0  0  0  0  0  0  0
   11.2802   -1.8611    0.0000 C   0  0  0  0  0  0  0  0  0  0  0  0
   12.2067   -1.8456    0.0000 C   0  0  0  0  0  0  0  0  0  0  0  0
   12.3446   -2.6611    0.0000 C   0  0  0  0  0  0  0  0  0  0  0  0
   10.7796   -2.9296    0.0000 C   0  0  0  0  0  0  0  0  0  0  0  0
    9.9565   -1.1119    0.0000 C   0  0  0  0  0  0  0  0  0  0  0  0
   10.8109   -0.6022    0.0000 C   0  0  0  0  0  0  0  0  0  0  0  0
    9.6165   -6.2585    0.0000 C   0  0  0  0  0  0  0  0  0  0  0  0
   10.0796   -6.9413    0.0000 C   0  0  0  0  0  0  0  0  0  0  0  0
    9.5733   -7.5927    0.0000 N   0  0  0  0  0  0  0  0  0  0  0  0
    8.7973   -7.3125    0.0000 C   0  0  0  0  0  0  0  0  0  0  0  0
    8.8240   -6.4879    0.0000 C   0  0  0  0  0  0  0  0  0  0  0  0
    9.8967   -5.4826    0.0000 N   0  0  0  0  0  0  0  0  0  0  0  0
   11.5430   -1.0791    0.0000 H   0  0  0  0  0  0  0  0  0  0  0  0
   10.0356   -2.2560    0.0000 H   0  0  0  0  0  0  0  0  0  0  0  0
  7  8  1  0
 15 17  1  0
  1 18  1  0
  8  9  2  0
 18 19  1  0
  4  5  1  0
 20 19  1  6
 20 21  1  0
  9 10  1  0
  2  3  1  0
 10 11  2  0
  5  6  2  0
 11 12  1  0
 20 25  1  0
 21 22  1  0
 22 23  1  0
 23 24  1  0
 24 25  1  0
 21 26  1  0
  6  1  1  0
 23 26  1  0
 12 13  2  0
 22 27  1  0
 13  8  1  0
 22 28  1  0
  3 34  1  0
  1  2  2  0
 29 30  1  0
 13 14  1  0
  5  7  1  0
 10 15  1  0
  3  4  2  0
 30 31  1  0
 31 32  1  0
 32 33  1  0
 33 29  1  0
 15 16  2  0
 29 34  1  6
 23 35  1  6
 21 36  1  1
M  END

> <chembl_id>
CHEMBL224956

> <chembl_pref_name>
None

$$$$

     RDKit          2D

 26 27  0  0  0  0  0  0  0  0999 V2000
   -1.6750   -3.1917    0.0000 C   0  0  0  0  0  0  0  0  0  0  0  0
   -2.1625   -3.5417    0.0000 N   0  0  0  0  0  0  0  0  0  0  0  0
   -1.9750   -4.1167    0.0000 C   0  0  0  0  0  0  0  0  0  0  0  0
   -1.1958   -3.5417    0.0000 C   0  0  0  0  0  0  0  0  0  0  0  0
   -1.3750   -4.1167    0.0000 C   0  0  0  0  0  0  0  0  0  0  0  0
   -0.1750   -3.7542    0.0000 C   0  0  0  0  0  0  0  0  0  0  0  0
   -0.6208   -3.3542    0.0000 N   0  0  0  0  0  0  0  0  0  0  0  0
   -1.6833   -2.5917    0.0000 C   0  0  0  0  0  0  0  0  0  0  0  0
    1.4042   -3.7875    0.0000 C   0  0  0  0  0  0  0  0  0  0  0  0
    0.3917   -3.5750    0.0000 N   0  0  0  0  0  0  0  0  0  0  0  0
    0.8417   -3.9750    0.0000 C   0  0  0  0  0  0  0  0  0  0  0  0
   -2.3333   -4.6000    0.0000 C   0  0  0  0  0  0  0  0  0  0  0  0
   -0.3000   -4.3417    0.0000 O   0  0  0  0  0  0  0  0  0  0  0  0
    1.8500   -4.1792    0.0000 C   0  0  0  0  0  0  0  0  0  0  0  0
   -2.1958   -2.2917    0.0000 O   0  0  0  0  0  0  0  0  0  0  0  0
   -2.7458   -3.3792    0.0000 C   0  0  0  0  0  0  0  0  0  0  0  0
    1.5542   -3.2042    0.0000 Cl  0  0  0  0  0  0  0  0  0  0  0  0
   -1.1583   -2.2875    0.0000 O   0  0  0  0  0  0  0  0  0  0  0  0
    2.4417   -4.1792    0.0000 Cl  0  0  0  0  0  0  0  0  0  0  0  0
    0.7125   -4.5625    0.0000 C   0  0  0  0  0  0  0  0  0  0  0  0
    1.1542   -4.9625    0.0000 C   0  0  0  0  0  0  0  0  0  0  0  0
   -2.9250   -4.5375    0.0000 C   0  0  0  0  0  0  0  0  0  0  0  0
   -2.0875   -5.1500    0.0000 C   0  0  0  0  0  0  0  0  0  0  0  0
   -2.7583   -5.0167    0.0000 C   0  0  0  0  0  0  0  0  0  0  0  0
    1.7292   -4.7750    0.0000 C   0  0  0  0  0  0  0  0  0  0  0  0
   -1.1583   -1.6875    0.0000 C   0  0  0  0  0  0  0  0  0  0  0  0
  2  1  1  0
  3  2  1  0
  4  1  2  0
  5  4  1  0
  6  7  1  0
  7  4  1  0
  8  1  1  0
  9 11  1  0
 10  6  1  0
 11 10  1  0
 12  3  1  0
 13  6  2  0
 14  9  2  0
 15  8  2  0
 16  2  1  0
 17  9  1  0
 18  8  1  0
 19 14  1  0
 20 11  2  0
 21 20  1  0
 22 12  1  0
 23 12  1  0
 24 12  1  0
 25 21  2  0
 26 18  1  0
  3  5  2  0
 14 25  1  0
M  END

> <chembl_id>
CHEMBL19057

> <chembl_pref_name>
None

$$$$

     RDKit          2D

 35 39  0  0  0  0  0  0  0  0999 V2000
   -0.7145    5.3625    0.0000 C   0  0  0  0  0  0  0  0  0  0  0  0
   -0.7145    4.5375    0.0000 S   0  0  0  0  0  0  0  0  0  0  0  0
   -1.5395    4.5375    0.0000 O   0  0  0  0  0  0  0  0  0  0  0  0
    0.1105    4.5375    0.0000 O   0  0  0  0  0  0  0  0  0  0  0  0
   -0.7145    3.7125    0.0000 C   0  0  0  0  0  0  0  0  0  0  0  0
    0.0000    3.3000    0.0000 C   0  0  0  0  0  0  0  0  0  0  0  0
    0.0000    2.4750    0.0000 C   0  0  0  0  0  0  0  0  0  0  0  0
   -0.7145    2.0625    0.0000 C   0  0  0  0  0  0  0  0  0  0  0  0
   -0.7145    1.2375    0.0000 O   0  0  0  0  0  0  0  0  0  0  0  0
    0.0000    0.8250    0.0000 C   0  0  0  0  0  0  0  0  0  0  0  0
    0.7145    1.2375    0.0000 N   0  0  0  0  0  0  0  0  0  0  0  0
    1.4289    0.8250    0.0000 C   0  0  0  0  0  0  0  0  0  0  0  0
    1.4289    0.0000    0.0000 C   0  0  0  0  0  0  0  0  0  0  0  0
    0.7145   -0.4125    0.0000 C   0  0  0  0  0  0  0  0  0  0  0  0
    0.0000    0.0000    0.0000 N   0  0  0  0  0  0  0  0  0  0  0  0
    0.7145   -1.2375    0.0000 C   0  0  0  0  0  0  0  0  0  0  0  0
    1.3819   -1.7224    0.0000 C   0  0  0  0  0  0  0  0  0  0  0  0
    1.1270   -2.5070    0.0000 N   0  0  0  0  0  0  0  0  0  0  0  0
    0.3020   -2.5070    0.0000 C   0  0  0  0  0  0  0  0  0  0  0  0
    0.0470   -1.7224    0.0000 N   0  0  0  0  0  0  0  0  0  0  0  0
   -0.7376   -1.4675    0.0000 C   0  0  0  0  0  0  0  0  0  0  0  0
   -1.3507   -2.0195    0.0000 C   0  0  0  0  0  0  0  0  0  0  0  0
   -2.1353   -1.7646    0.0000 C   0  0  0  0  0  0  0  0  0  0  0  0
   -2.3068   -0.9576    0.0000 N   0  0  0  0  0  0  0  0  0  0  0  0
   -1.6937   -0.4056    0.0000 C   0  0  0  0  0  0  0  0  0  0  0  0
   -0.9091   -0.6605    0.0000 C   0  0  0  0  0  0  0  0  0  0  0  0
    2.1665   -1.4675    0.0000 C   0  0  0  0  0  0  0  0  0  0  0  0
    2.3381   -0.6605    0.0000 C   0  0  0  0  0  0  0  0  0  0  0  0
    3.1227   -0.4056    0.0000 C   0  0  0  0  0  0  0  0  0  0  0  0
    3.7358   -0.9576    0.0000 C   0  0  0  0  0  0  0  0  0  0  0  0
    4.5204   -0.7027    0.0000 F   0  0  0  0  0  0  0  0  0  0  0  0
    3.5642   -1.7646    0.0000 C   0  0  0  0  0  0  0  0  0  0  0  0
    2.7796   -2.0195    0.0000 C   0  0  0  0  0  0  0  0  0  0  0  0
   -1.4289    2.4750    0.0000 C   0  0  0  0  0  0  0  0  0  0  0  0
   -1.4289    3.3000    0.0000 C   0  0  0  0  0  0  0  0  0  0  0  0
  1  2  1  0
  2  3  2  0
  2  4  2  0
  2  5  1  0
  5  6  2  0
  6  7  1  0
  7  8  2  0
  8  9  1  0
  9 10  1  0
 10 11  2  0
 11 12  1  0
 12 13  2  0
 13 14  1  0
 14 15  2  0
 10 15  1  0
 14 16  1  0
 16 17  2  0
 17 18  1  0
 18 19  2  0
 19 20  1  0
 16 20  1  0
 20 21  1  0
 21 22  1  0
 22 23  1  0
 23 24  1  0
 24 25  1  0
 25 26  1  0
 21 26  1  0
 17 27  1  0
 27 28  2  0
 28 29  1  0
 29 30  2  0
 30 31  1  0
 30 32  1  0
 32 33  2  0
 27 33  1  0
  8 34  1  0
 34 35  2  0
  5 35  1  0
M  END

> <chembl_id>
CHEMBL418348

> <chembl_pref_name>
None

$$$$

     RDKit          2D

 28 30  0  0  0  0  0  0  0  0999 V2000
    0.9486   -1.3833    0.0000 C   0  0  0  0  0  0  0  0  0  0  0  0
    0.9474   -2.2107    0.0000 N   0  0  0  0  0  0  0  0  0  0  0  0
    1.6623   -2.6235    0.0000 C   0  0  0  0  0  0  0  0  0  0  0  0
    2.3787   -2.2102    0.0000 N   0  0  0  0  0  0  0  0  0  0  0  0
    2.3758   -1.3797    0.0000 C   0  0  0  0  0  0  0  0  0  0  0  0
    1.6604   -0.9705    0.0000 N   0  0  0  0  0  0  0  0  0  0  0  0
    3.0888   -0.9645    0.0000 N   0  0  0  0  0  0  0  0  0  0  0  0
    3.8048   -1.3743    0.0000 C   0  0  0  0  0  0  0  0  0  0  0  0
    3.8045   -2.1969    0.0000 C   0  0  0  0  0  0  0  0  0  0  0  0
    4.5197   -2.6067    0.0000 C   0  0  0  0  0  0  0  0  0  0  0  0
    5.2336   -2.1914    0.0000 C   0  0  0  0  0  0  0  0  0  0  0  0
    5.2278   -1.3622    0.0000 C   0  0  0  0  0  0  0  0  0  0  0  0
    4.5121   -0.9562    0.0000 C   0  0  0  0  0  0  0  0  0  0  0  0
    4.5047   -0.1312    0.0000 C   0  0  0  0  0  0  0  0  0  0  0  0
    4.5224   -3.4316    0.0000 C   0  0  0  0  0  0  0  0  0  0  0  0
    3.8093   -3.8465    0.0000 O   0  0  0  0  0  0  0  0  0  0  0  0
    5.2382   -3.8418    0.0000 N   0  0  0  0  0  0  0  0  0  0  0  0
    0.2340   -0.9710    0.0000 N   0  0  0  0  0  0  0  0  0  0  0  0
    0.9475   -3.8609    0.0000 C   0  0  0  0  0  0  0  0  0  0  0  0
    0.1902   -3.5265    0.0000 C   0  0  0  0  0  0  0  0  0  0  0  0
   -0.3619   -4.1395    0.0000 N   0  0  0  0  0  0  0  0  0  0  0  0
    0.0504   -4.8541    0.0000 C   0  0  0  0  0  0  0  0  0  0  0  0
    0.8574   -4.6827    0.0000 C   0  0  0  0  0  0  0  0  0  0  0  0
    1.6584   -3.4417    0.0000 N   0  0  0  0  0  0  0  0  0  0  0  0
   -0.4803   -1.3836    0.0000 C   0  0  0  0  0  0  0  0  0  0  0  0
   -1.1949   -0.9713    0.0000 C   0  0  0  0  0  0  0  0  0  0  0  0
   -1.1952   -0.1463    0.0000 C   0  0  0  0  0  0  0  0  0  0  0  0
   -1.9093   -1.3840    0.0000 C   0  0  0  0  0  0  0  0  0  0  0  0
  1  2  2  0
 13 14  1  0
  5  7  1  0
 10 15  1  0
  3  4  2  0
 15 16  2  0
  7  8  1  0
 15 17  1  0
  1 18  1  0
  3 24  1  0
  8  9  2  0
 19 20  1  0
  4  5  1  0
  9 10  1  0
  2  3  1  0
 10 11  2  0
 20 21  1  0
 21 22  1  0
 22 23  1  0
 23 19  1  0
  5  6  2  0
 19 24  1  1
 11 12  1  0
 18 25  1  0
  6  1  1  0
 25 26  1  0
 12 13  2  0
 26 27  1  0
 13  8  1  0
 26 28  1  0
M  END

> <chembl_id>
CHEMBL413783

> <chembl_pref_name>
None

$$$$

     RDKit          2D

 27 30  0  0  1  0  0  0  0  0999 V2000
    2.7792    2.4333    0.0000 C   0  0  0  0  0  0  0  0  0  0  0  0
    2.2917    3.1083    0.0000 C   0  0  0  0  0  0  0  0  0  0  0  0
    2.2917    1.7583    0.0000 N   0  0  0  0  0  0  0  0  0  0  0  0
    1.5042    2.8458    0.0000 C   0  0  0  0  0  0  0  0  0  0  0  0
    1.5042    2.0208    0.0000 C   0  0  0  0  0  0  0  0  0  0  0  0
    3.6042    2.4333    0.0000 C   0  0  0  0  0  0  0  0  0  0  0  0
    2.5500    3.8958    0.0000 C   0  0  0  0  0  0  0  0  0  0  0  0
    4.8375    3.1500    0.0000 C   0  0  0  0  0  0  0  0  0  0  0  0
    0.7875    3.2583    0.0000 N   0  0  0  0  0  0  0  0  0  0  0  0
    5.2542    2.4333    0.0000 N   0  0  0  0  0  0  0  0  0  0  0  0
    4.0125    3.1458    0.0000 C   0  0  0  0  0  0  0  0  0  0  0  0
    5.2417    3.8708    0.0000 N   0  0  0  0  0  0  0  0  0  0  0  0
    3.3542    4.0542    0.0000 C   0  0  0  0  0  0  0  0  0  0  0  0
    2.0000    4.5000    0.0000 C   0  0  0  0  0  0  0  0  0  0  0  0
    3.0625    5.4542    0.0000 C   0  0  0  0  0  0  0  0  0  0  0  0
    4.8417    1.7208    0.0000 C   0  0  0  0  0  0  0  0  0  0  0  0
    6.0667    3.8708    0.0000 C   0  0  0  0  0  0  0  0  0  0  0  0
    2.2500    5.2792    0.0000 C   0  0  0  0  0  0  0  0  0  0  0  0
    3.6167    4.8417    0.0000 C   0  0  0  0  0  0  0  0  0  0  0  0
    3.3167    6.2417    0.0000 F   0  0  0  0  0  0  0  0  0  0  0  0
    4.0167    1.7208    0.0000 C   0  0  0  0  0  0  0  0  0  0  0  0
    0.7875    1.6083    0.0000 C   0  0  0  0  0  0  0  0  0  0  0  0
    6.0750    2.4458    0.0000 O   0  0  0  0  0  0  0  0  0  0  0  0
    0.0750    2.8458    0.0000 C   0  0  0  0  0  0  0  0  0  0  0  0
    6.4792    3.1583    0.0000 C   0  0  0  0  0  0  0  0  0  0  0  0
    0.0750    2.0208    0.0000 C   0  0  0  0  0  0  0  0  0  0  0  0
    7.3042    3.1708    0.0000 C   0  0  0  0  0  0  0  0  0  0  0  0
  2  1  2  0
  3  1  1  0
  4  2  1  0
  5  3  1  0
  6  1  1  0
  7  2  1  0
  8 11  2  0
  9  4  2  0
 10 16  2  0
 11  6  1  0
 12  8  1  0
 13  7  2  0
 14  7  1  0
 15 18  1  0
 16 21  1  0
 17 12  1  0
 18 14  2  0
 19 13  1  0
 20 15  1  0
 21  6  2  0
 22  5  2  0
 25 23  1  1
 24  9  1  0
 25 17  1  0
 26 22  1  0
 27 25  1  0
  5  4  1  0
 10  8  1  0
 26 24  2  0
 15 19  2  0
M  END

> <chembl_id>
CHEMBL358537

> <chembl_pref_name>
None

$$$$

     RDKit          2D

 34 38  0  0  0  0  0  0  0  0999 V2000
    3.3500   -0.8500    0.0000 N   0  0  0  0  0  0  0  0  0  0  0  0
    4.0625   -1.2625    0.0000 C   0  0  0  0  0  0  0  0  0  0  0  0
    4.0625   -2.0875    0.0000 C   0  0  0  0  0  0  0  0  0  0  0  0
    2.6292   -1.2625    0.0000 C   0  0  0  0  0  0  0  0  0  0  0  0
    4.7750   -2.5000    0.0000 C   0  0  0  0  0  0  0  0  0  0  0  0
    3.3500   -0.0167    0.0000 C   0  0  0  0  0  0  0  0  0  0  0  0
    4.7750   -3.3250    0.0000 C   0  0  0  0  0  0  0  0  0  0  0  0
    2.6292   -2.0875    0.0000 N   0  0  0  0  0  0  0  0  0  0  0  0
    5.4875   -3.7292    0.0000 C   0  0  0  0  0  0  0  0  0  0  0  0
    3.3500   -2.5000    0.0000 C   0  0  0  0  0  0  0  0  0  0  0  0
    4.7750   -0.8500    0.0000 C   0  0  0  0  0  0  0  0  0  0  0  0
    5.4917   -1.2625    0.0000 C   0  0  0  0  0  0  0  0  0  0  0  0
    5.4917   -2.0875    0.0000 C   0  0  0  0  0  0  0  0  0  0  0  0
    5.4917   -4.5542    0.0000 C   0  0  0  0  0  0  0  0  0  0  0  0
    6.2042   -0.0292    0.0000 N   0  0  0  0  0  0  0  0  0  0  0  0
    4.0542   -3.7292    0.0000 C   0  0  0  0  0  0  0  0  0  0  0  0
    4.0625    0.3958    0.0000 C   0  0  0  0  0  0  0  0  0  0  0  0
    2.6292    0.3958    0.0000 C   0  0  0  0  0  0  0  0  0  0  0  0
    1.9125   -0.8500    0.0000 O   0  0  0  0  0  0  0  0  0  0  0  0
    6.2125    1.6250    0.0000 N   0  0  0  0  0  0  0  0  0  0  0  0
    6.2042   -0.8542    0.0000 C   0  0  0  0  0  0  0  0  0  0  0  0
    4.7750   -4.9667    0.0000 C   0  0  0  0  0  0  0  0  0  0  0  0
    6.2000   -3.3167    0.0000 Cl  0  0  0  0  0  0  0  0  0  0  0  0
    4.0542   -4.5542    0.0000 C   0  0  0  0  0  0  0  0  0  0  0  0
    4.7792   -0.0292    0.0000 Cl  0  0  0  0  0  0  0  0  0  0  0  0
    1.9125   -0.0292    0.0000 Cl  0  0  0  0  0  0  0  0  0  0  0  0
    4.7667   -5.7917    0.0000 F   0  0  0  0  0  0  0  0  0  0  0  0
    5.4917    0.3833    0.0000 C   0  0  0  0  0  0  0  0  0  0  0  0
    6.9250    0.3875    0.0000 C   0  0  0  0  0  0  0  0  0  0  0  0
    6.9250    1.2083    0.0000 C   0  0  0  0  0  0  0  0  0  0  0  0
    5.4917    1.2125    0.0000 C   0  0  0  0  0  0  0  0  0  0  0  0
    3.3500    1.6333    0.0000 C   0  0  0  0  0  0  0  0  0  0  0  0
    4.0625    1.2208    0.0000 C   0  0  0  0  0  0  0  0  0  0  0  0
    2.6292    1.2208    0.0000 C   0  0  0  0  0  0  0  0  0  0  0  0
  2  1  1  0
  3  2  2  0
  4  1  1  0
  5  3  1  0
  6  1  1  0
  7  5  1  0
  8  4  1  0
  9  7  1  0
 10  8  1  0
 11  2  1  0
 12 11  2  0
 13 12  1  0
 14  9  2  0
 15 21  1  0
 16  7  2  0
 17  6  2  0
 18  6  1  0
 19  4  2  0
 20 30  1  0
 21 12  1  0
 22 24  2  0
 23  9  1  0
 24 16  1  0
 25 17  1  0
 26 18  1  0
 27 22  1  0
 28 15  1  0
 29 15  1  0
 30 29  1  0
 31 28  1  0
 32 34  1  0
 33 17  1  0
 34 18  2  0
 33 32  2  0
  3 10  1  0
  5 13  2  0
 31 20  1  0
 14 22  1  0
M  END

> <chembl_id>
CHEMBL327746

> <chembl_pref_name>
None

$$$$
