
     RDKit          2D

 33 37  0  0  0  0  0  0  0  0999 V2000
    3.2126   -6.6292    0.0000 N   0  0  0  0  0  0  0  0  0  0  0  0
    3.9271   -6.2167    0.0000 C   0  0  0  0  0  0  0  0  0  0  0  0
    3.9271   -5.3917    0.0000 C   0  0  0  0  0  0  0  0  0  0  0  0
    3.2126   -4.9792    0.0000 C   0  0  0  0  0  0  0  0  0  0  0  0
    2.4981   -6.2167    0.0000 C   0  0  0  0  0  0  0  0  0  0  0  0
    2.4981   -5.3917    0.0000 C   0  0  0  0  0  0  0  0  0  0  0  0
    1.7135   -5.1367    0.0000 C   0  0  0  0  0  0  0  0  0  0  0  0
    1.2286   -5.8042    0.0000 N   0  0  0  0  0  0  0  0  0  0  0  0
    1.7135   -6.4716    0.0000 N   0  0  0  0  0  0  0  0  0  0  0  0
    3.2126   -7.4542    0.0000 C   0  0  0  0  0  0  0  0  0  0  0  0
    4.6415   -6.6292    0.0000 O   0  0  0  0  0  0  0  0  0  0  0  0
    3.2126   -4.1542    0.0000 N   0  0  0  0  0  0  0  0  0  0  0  0
    1.4586   -7.2562    0.0000 C   0  0  0  0  0  0  0  0  0  0  0  0
    0.6516   -7.4277    0.0000 C   0  0  0  0  0  0  0  0  0  0  0  0
    0.3967   -8.2124    0.0000 C   0  0  0  0  0  0  0  0  0  0  0  0
    0.9487   -8.8255    0.0000 C   0  0  0  0  0  0  0  0  0  0  0  0
    1.7557   -8.6539    0.0000 C   0  0  0  0  0  0  0  0  0  0  0  0
    2.0106   -7.8693    0.0000 C   0  0  0  0  0  0  0  0  0  0  0  0
    3.9271   -3.7417    0.0000 C   0  0  0  0  0  0  0  0  0  0  0  0
    3.9271   -2.9167    0.0000 C   0  0  0  0  0  0  0  0  0  0  0  0
    4.6415   -2.5042    0.0000 C   0  0  0  0  0  0  0  0  0  0  0  0
    5.3560   -2.9167    0.0000 C   0  0  0  0  0  0  0  0  0  0  0  0
    5.3560   -3.7417    0.0000 C   0  0  0  0  0  0  0  0  0  0  0  0
    4.6415   -4.1542    0.0000 C   0  0  0  0  0  0  0  0  0  0  0  0
    4.6415   -1.6792    0.0000 C   0  0  0  0  0  0  0  0  0  0  0  0
    3.9271   -1.2667    0.0000 O   0  0  0  0  0  0  0  0  0  0  0  0
    5.3560   -1.2667    0.0000 N   0  0  0  0  0  0  0  0  0  0  0  0
    5.3560   -0.4417    0.0000 C   0  0  0  0  0  0  0  0  0  0  0  0
    5.7685    0.2728    0.0000 C   0  0  0  0  0  0  0  0  0  0  0  0
    4.9435    0.2728    0.0000 C   0  0  0  0  0  0  0  0  0  0  0  0
    0.6937   -9.6101    0.0000 F   0  0  0  0  0  0  0  0  0  0  0  0
    3.9271   -7.8667    0.0000 C   0  0  0  0  0  0  0  0  0  0  0  0
    4.6415   -4.9792    0.0000 C   0  0  0  0  0  0  0  0  0  0  0  0
 15 16  2  0
  6  7  1  0
 16 17  1  0
  7  8  2  0
 17 18  2  0
 18 13  1  0
  8  9  1  0
 12 19  1  0
  9  5  1  0
 19 20  2  0
  3  4  2  0
 20 21  1  0
  1 10  1  0
 21 22  2  0
  5  6  2  0
 22 23  1  0
  2 11  2  0
 23 24  2  0
 24 19  1  0
 21 25  1  0
  4 12  1  0
 25 26  2  0
  6  4  1  0
 25 27  1  0
  9 13  1  0
 27 28  1  0
 29 28  1  0
 30 29  1  0
 28 30  1  0
  5  1  1  0
 13 14  2  0
  1  2  1  0
 16 31  1  0
 14 15  1  0
 10 32  1  0
  2  3  1  0
 24 33  1  0
M  END

> <chembl_id>
CHEMBL559597

> <chembl_pref_name>
None

$$$$

     RDKit          2D

 38 42  0  0  0  0  0  0  0  0999 V2000
    0.0871  -11.9121    0.0000 C   0  0  0  0  0  0  0  0  0  0  0  0
    0.0871  -12.7371    0.0000 N   0  0  0  0  0  0  0  0  0  0  0  0
    0.8062  -13.1496    0.0000 C   0  0  0  0  0  0  0  0  0  0  0  0
    0.8062  -11.4996    0.0000 C   0  0  0  0  0  0  0  0  0  0  0  0
   -0.6319  -13.1541    0.0000 C   0  0  0  0  0  0  0  0  0  0  0  0
   -1.3464  -12.7416    0.0000 O   0  0  0  0  0  0  0  0  0  0  0  0
   -0.6319  -13.9791    0.0000 C   0  0  0  0  0  0  0  0  0  0  0  0
   -1.3444  -14.3939    0.0000 C   0  0  0  0  0  0  0  0  0  0  0  0
    0.0825  -15.2191    0.0000 C   0  0  0  0  0  0  0  0  0  0  0  0
    0.0793  -14.3917    0.0000 C   0  0  0  0  0  0  0  0  0  0  0  0
   -0.8006  -16.4380    0.0000 N   0  0  0  0  0  0  0  0  0  0  0  0
   -0.6297  -15.6315    0.0000 C   0  0  0  0  0  0  0  0  0  0  0  0
   -1.3451  -15.2204    0.0000 C   0  0  0  0  0  0  0  0  0  0  0  0
   -1.9562  -15.7751    0.0000 C   0  0  0  0  0  0  0  0  0  0  0  0
   -1.6164  -16.5269    0.0000 C   0  0  0  0  0  0  0  0  0  0  0  0
   -2.7640  -15.6073    0.0000 C   0  0  0  0  0  0  0  0  0  0  0  0
   -3.0227  -14.8239    0.0000 O   0  0  0  0  0  0  0  0  0  0  0  0
   -3.3132  -16.2230    0.0000 C   0  0  0  0  0  0  0  0  0  0  0  0
   -4.1209  -16.0553    0.0000 N   0  0  0  0  0  0  0  0  0  0  0  0
   -3.0545  -17.0064    0.0000 O   0  0  0  0  0  0  0  0  0  0  0  0
    0.7934  -13.9785    0.0000 Cl  0  0  0  0  0  0  0  0  0  0  0  0
   -0.2471  -17.0498    0.0000 C   0  0  0  0  0  0  0  0  0  0  0  0
   -4.3795  -15.2719    0.0000 C   0  0  0  0  0  0  0  0  0  0  0  0
   -4.6700  -16.6710    0.0000 C   0  0  0  0  0  0  0  0  0  0  0  0
    1.5156  -11.9120    0.0000 C   0  0  0  0  0  0  0  0  0  0  0  0
    1.5126  -12.7406    0.0000 C   0  0  0  0  0  0  0  0  0  0  0  0
    2.2276  -13.1555    0.0000 N   0  0  0  0  0  0  0  0  0  0  0  0
    2.9459  -12.7431    0.0000 C   0  0  0  0  0  0  0  0  0  0  0  0
    2.9448  -11.9114    0.0000 N   0  0  0  0  0  0  0  0  0  0  0  0
    2.2293  -11.5001    0.0000 C   0  0  0  0  0  0  0  0  0  0  0  0
    2.2286  -10.6751    0.0000 C   0  0  0  0  0  0  0  0  0  0  0  0
    2.9450  -10.2651    0.0000 C   0  0  0  0  0  0  0  0  0  0  0  0
    2.9447   -9.4408    0.0000 C   0  0  0  0  0  0  0  0  0  0  0  0
    2.2294   -9.0281    0.0000 C   0  0  0  0  0  0  0  0  0  0  0  0
    1.5128   -9.4457    0.0000 C   0  0  0  0  0  0  0  0  0  0  0  0
    1.5167  -10.2686    0.0000 C   0  0  0  0  0  0  0  0  0  0  0  0
    2.2275   -8.2031    0.0000 F   0  0  0  0  0  0  0  0  0  0  0  0
    3.6588  -10.6788    0.0000 F   0  0  0  0  0  0  0  0  0  0  0  0
  7  8  2  0
 16 18  1  0
  8 13  1  0
 18 19  1  0
  3 26  1  0
 18 20  2  0
 12  9  1  0
 10 21  1  0
 25  4  1  0
 11 22  1  0
  9 10  2  0
 19 23  1  0
 10  7  1  0
 19 24  1  0
 12 13  2  0
 25 26  2  0
  2  5  1  0
 26 27  1  0
  1  2  1  0
 27 28  2  0
  5  6  2  0
 28 29  1  0
  1  4  1  0
 29 30  2  0
 30 25  1  0
 11 12  1  0
 30 31  1  0
 13 14  1  0
 31 32  2  0
 14 15  2  0
 32 33  1  0
 15 11  1  0
 33 34  2  0
  5  7  1  0
 34 35  1  0
 14 16  1  0
 35 36  2  0
 36 31  1  0
  2  3  1  0
 34 37  1  0
 16 17  2  0
 32 38  1  0
M  END

> <chembl_id>
CHEMBL243980

> <chembl_pref_name>
None

$$$$

     RDKit          2D

 33 36  0  0  0  0  0  0  0  0999 V2000
    6.9449    1.2751    0.0000 N   0  0  0  0  0  0  0  0  0  0  0  0
    6.9437    0.4477    0.0000 C   0  0  0  0  0  0  0  0  0  0  0  0
    7.6586    0.0348    0.0000 N   0  0  0  0  0  0  0  0  0  0  0  0
    7.6568    1.6879    0.0000 C   0  0  0  0  0  0  0  0  0  0  0  0
    8.3722    1.2788    0.0000 C   0  0  0  0  0  0  0  0  0  0  0  0
    8.3730    0.4518    0.0000 C   0  0  0  0  0  0  0  0  0  0  0  0
    9.0884    0.0409    0.0000 C   0  0  0  0  0  0  0  0  0  0  0  0
    9.8034    0.4556    0.0000 C   0  0  0  0  0  0  0  0  0  0  0  0
    9.7987    1.2857    0.0000 C   0  0  0  0  0  0  0  0  0  0  0  0
    9.0828    1.6929    0.0000 C   0  0  0  0  0  0  0  0  0  0  0  0
   10.5107    1.7025    0.0000 C   0  0  0  0  0  0  0  0  0  0  0  0
   11.2250    1.2909    0.0000 C   0  0  0  0  0  0  0  0  0  0  0  0
   11.9365    1.7071    0.0000 C   0  0  0  0  0  0  0  0  0  0  0  0
   11.9320    2.5331    0.0000 C   0  0  0  0  0  0  0  0  0  0  0  0
   11.2099    2.9410    0.0000 C   0  0  0  0  0  0  0  0  0  0  0  0
   10.5014    2.5225    0.0000 C   0  0  0  0  0  0  0  0  0  0  0  0
   12.6533    1.2986    0.0000 C   0  0  0  0  0  0  0  0  0  0  0  0
   12.6579    0.4735    0.0000 O   0  0  0  0  0  0  0  0  0  0  0  0
   13.3656    1.7151    0.0000 N   0  0  0  0  0  0  0  0  0  0  0  0
   14.0823    1.3066    0.0000 C   0  0  0  0  0  0  0  0  0  0  0  0
   14.0820    0.4822    0.0000 C   0  0  0  0  0  0  0  0  0  0  0  0
   14.7980    0.0738    0.0000 C   0  0  0  0  0  0  0  0  0  0  0  0
   15.5112    0.4904    0.0000 C   0  0  0  0  0  0  0  0  0  0  0  0
   15.5039    1.3197    0.0000 C   0  0  0  0  0  0  0  0  0  0  0  0
   14.7874    1.7244    0.0000 C   0  0  0  0  0  0  0  0  0  0  0  0
   14.8023   -0.7513    0.0000 C   0  0  0  0  0  0  0  0  0  0  0  0
   14.7969   -1.5751    0.0000 F   0  0  0  0  0  0  0  0  0  0  0  0
   15.6273   -0.7518    0.0000 F   0  0  0  0  0  0  0  0  0  0  0  0
   13.9772   -0.7519    0.0000 F   0  0  0  0  0  0  0  0  0  0  0  0
    6.2288    0.0357    0.0000 N   0  0  0  0  0  0  0  0  0  0  0  0
    6.2282   -0.7894    0.0000 C   0  0  0  0  0  0  0  0  0  0  0  0
   13.3685    0.0680    0.0000 C   0  0  0  0  0  0  0  0  0  0  0  0
    9.7824    2.9274    0.0000 C   0  0  0  0  0  0  0  0  0  0  0  0
 15 16  1  0
 16 11  2  0
  7  8  1  0
 13 17  1  0
  5  4  1  0
 17 18  2  0
  8  9  2  0
 17 19  1  0
  4  1  2  0
 19 20  1  0
  9 10  1  0
 20 21  2  0
 10  5  2  0
 21 22  1  0
 22 23  2  0
  9 11  1  0
 23 24  1  0
  2  3  2  0
 24 25  2  0
 25 20  1  0
 11 12  1  0
 22 26  1  0
  5  6  1  0
 26 27  1  0
 12 13  2  0
 26 28  1  0
  3  6  1  0
 26 29  1  0
 13 14  1  0
  2 30  1  0
  6  7  2  0
 30 31  1  0
 14 15  2  0
 21 32  1  0
  1  2  1  0
 16 33  1  0
M  END

> <chembl_id>
CHEMBL215969

> <chembl_pref_name>
None

$$$$

     RDKit          2D

 31 34  0  0  0  0  0  0  0  0999 V2000
    5.5167   -1.5667    0.0000 N   0  0  0  0  0  0  0  0  0  0  0  0
    6.2292   -1.9792    0.0000 C   0  0  0  0  0  0  0  0  0  0  0  0
    6.2292   -2.8042    0.0000 C   0  0  0  0  0  0  0  0  0  0  0  0
    6.9417   -3.2167    0.0000 C   0  0  0  0  0  0  0  0  0  0  0  0
    4.8000   -1.9792    0.0000 C   0  0  0  0  0  0  0  0  0  0  0  0
    5.5167   -0.7375    0.0000 C   0  0  0  0  0  0  0  0  0  0  0  0
    6.9417   -4.0417    0.0000 C   0  0  0  0  0  0  0  0  0  0  0  0
    4.8000   -2.8042    0.0000 N   0  0  0  0  0  0  0  0  0  0  0  0
    6.9417   -1.5667    0.0000 C   0  0  0  0  0  0  0  0  0  0  0  0
    7.6542   -1.9792    0.0000 C   0  0  0  0  0  0  0  0  0  0  0  0
    7.6542   -2.8042    0.0000 C   0  0  0  0  0  0  0  0  0  0  0  0
    5.5167   -3.2167    0.0000 C   0  0  0  0  0  0  0  0  0  0  0  0
    8.3792   -1.5667    0.0000 C   0  0  0  0  0  0  0  0  0  0  0  0
    7.6542   -4.4542    0.0000 C   0  0  0  0  0  0  0  0  0  0  0  0
    6.2250   -4.4542    0.0000 C   0  0  0  0  0  0  0  0  0  0  0  0
    4.8000   -0.3250    0.0000 C   0  0  0  0  0  0  0  0  0  0  0  0
    6.2292   -0.3250    0.0000 C   0  0  0  0  0  0  0  0  0  0  0  0
    4.0792   -1.5667    0.0000 O   0  0  0  0  0  0  0  0  0  0  0  0
    7.6542   -5.2875    0.0000 C   0  0  0  0  0  0  0  0  0  0  0  0
    8.3792   -0.7417    0.0000 O   0  0  0  0  0  0  0  0  0  0  0  0
    6.9417   -5.7000    0.0000 C   0  0  0  0  0  0  0  0  0  0  0  0
    6.2250   -5.2875    0.0000 C   0  0  0  0  0  0  0  0  0  0  0  0
    9.0917   -1.9792    0.0000 O   0  0  0  0  0  0  0  0  0  0  0  0
    4.0792   -0.7417    0.0000 Cl  0  0  0  0  0  0  0  0  0  0  0  0
    6.9500   -0.7500    0.0000 Cl  0  0  0  0  0  0  0  0  0  0  0  0
    6.9417   -6.5250    0.0000 F   0  0  0  0  0  0  0  0  0  0  0  0
    8.3667   -4.0417    0.0000 C   0  0  0  0  0  0  0  0  0  0  0  0
    5.5167    0.9208    0.0000 C   0  0  0  0  0  0  0  0  0  0  0  0
    6.2292    0.5083    0.0000 C   0  0  0  0  0  0  0  0  0  0  0  0
    4.8000    0.5000    0.0000 C   0  0  0  0  0  0  0  0  0  0  0  0
    9.0875   -2.8042    0.0000 C   0  0  0  0  0  0  0  0  0  0  0  0
  2  1  1  0
  3  2  2  0
  4  3  1  0
  5  1  1  0
  6  1  1  0
  7  4  1  0
  8  5  1  0
  9  2  1  0
 10  9  2  0
 11 10  1  0
 12  8  1  0
 13 10  1  0
 14  7  1  0
 15  7  2  0
 16  6  1  0
 17  6  2  0
 18  5  2  0
 19 14  2  0
 20 13  2  0
 21 22  2  0
 22 15  1  0
 23 13  1  0
 24 16  1  0
 25 17  1  0
 26 21  1  0
 27 14  1  0
 28 29  2  0
 29 17  1  0
 30 16  2  0
 31 23  1  0
 30 28  1  0
  3 12  1  0
  4 11  2  0
 19 21  1  0
M  END

> <chembl_id>
CHEMBL94783

> <chembl_pref_name>
None

$$$$

     RDKit          2D

 31 33  0  0  0  0  0  0  0  0999 V2000
    7.4792   -2.4000    0.0000 C   0  0  0  0  0  0  0  0  0  0  0  0
    6.4417   -3.2292    0.0000 N   0  0  0  0  0  0  0  0  0  0  0  0
    6.7917   -1.9417    0.0000 C   0  0  0  0  0  0  0  0  0  0  0  0
    7.2625   -3.1917    0.0000 N   0  0  0  0  0  0  0  0  0  0  0  0
    6.1500   -2.4667    0.0000 C   0  0  0  0  0  0  0  0  0  0  0  0
    8.2792   -2.1917    0.0000 N   0  0  0  0  0  0  0  0  0  0  0  0
    8.8542   -2.7792    0.0000 C   0  0  0  0  0  0  0  0  0  0  0  0
    5.3500   -2.2542    0.0000 C   0  0  0  0  0  0  0  0  0  0  0  0
    9.6542   -2.5667    0.0000 N   0  0  0  0  0  0  0  0  0  0  0  0
   10.4250   -8.3167    0.0000 C   0  0  0  0  0  0  0  0  0  0  0  0
   11.2167   -8.0792    0.0000 N   0  0  0  0  0  0  0  0  0  0  0  0
    8.6417   -3.5667    0.0000 O   0  0  0  0  0  0  0  0  0  0  0  0
    9.8167   -7.7542    0.0000 O   0  0  0  0  0  0  0  0  0  0  0  0
   11.9875   -4.8792    0.0000 O   0  0  0  0  0  0  0  0  0  0  0  0
   10.2292   -3.1542    0.0000 C   0  0  0  0  0  0  0  0  0  0  0  0
   11.4125   -7.2667    0.0000 C   0  0  0  0  0  0  0  0  0  0  0  0
   11.3917   -4.3125    0.0000 C   0  0  0  0  0  0  0  0  0  0  0  0
   11.7917   -5.6667    0.0000 C   0  0  0  0  0  0  0  0  0  0  0  0
    7.7750   -3.8417    0.0000 C   0  0  0  0  0  0  0  0  0  0  0  0
   12.2042   -7.0292    0.0000 C   0  0  0  0  0  0  0  0  0  0  0  0
   10.0125   -3.9500    0.0000 C   0  0  0  0  0  0  0  0  0  0  0  0
   10.8125   -6.7042    0.0000 C   0  0  0  0  0  0  0  0  0  0  0  0
   11.0167   -2.9417    0.0000 C   0  0  0  0  0  0  0  0  0  0  0  0
   12.3917   -6.2375    0.0000 C   0  0  0  0  0  0  0  0  0  0  0  0
   10.5917   -4.5292    0.0000 C   0  0  0  0  0  0  0  0  0  0  0  0
   11.6042   -3.5292    0.0000 C   0  0  0  0  0  0  0  0  0  0  0  0
   11.0042   -5.9042    0.0000 C   0  0  0  0  0  0  0  0  0  0  0  0
    5.5625   -1.4542    0.0000 C   0  0  0  0  0  0  0  0  0  0  0  0
    5.1375   -3.0542    0.0000 C   0  0  0  0  0  0  0  0  0  0  0  0
    4.5500   -2.0417    0.0000 C   0  0  0  0  0  0  0  0  0  0  0  0
   10.2417   -9.1167    0.0000 C   0  0  0  0  0  0  0  0  0  0  0  0
  2  4  1  0
  3  1  2  0
  4  1  1  0
  5  3  1  0
  6  1  1  0
  7  6  1  0
  8  5  1  0
  9  7  1  0
 10 11  1  0
 11 16  1  0
 12  7  2  0
 13 10  2  0
 14 17  1  0
 15  9  1  0
 16 22  2  0
 17 26  1  0
 18 14  1  0
 19  4  1  0
 20 24  2  0
 21 15  2  0
 22 27  1  0
 23 15  1  0
 24 18  1  0
 25 21  1  0
 26 23  2  0
 27 18  2  0
 28  8  1  0
 29  8  1  0
 30  8  1  0
 31 10  1  0
  5  2  2  0
 25 17  2  0
 20 16  1  0
M  END

> <chembl_id>
CHEMBL289155

> <chembl_pref_name>
None

$$$$

     RDKit          2D

 28 30  0  0  0  0  0  0  0  0999 V2000
    2.5672    3.8460    0.0000 C   0  0  0  0  0  0  0  0  0  0  0  0
    1.8527    3.4335    0.0000 C   0  0  0  0  0  0  0  0  0  0  0  0
    1.8527    2.6085    0.0000 C   0  0  0  0  0  0  0  0  0  0  0  0
    2.5672    2.1960    0.0000 C   0  0  0  0  0  0  0  0  0  0  0  0
    3.2817    2.6085    0.0000 C   0  0  0  0  0  0  0  0  0  0  0  0
    3.2817    3.4335    0.0000 C   0  0  0  0  0  0  0  0  0  0  0  0
    2.5672    1.3710    0.0000 C   0  0  0  0  0  0  0  0  0  0  0  0
    1.8527    0.9585    0.0000 C   0  0  0  0  0  0  0  0  0  0  0  0
    3.2817    0.9585    0.0000 O   0  0  0  0  0  0  0  0  0  0  0  0
    1.1382    1.3710    0.0000 C   0  0  0  0  0  0  0  0  0  0  0  0
    0.4238    0.9585    0.0000 C   0  0  0  0  0  0  0  0  0  0  0  0
    0.4238    0.1335    0.0000 N   0  0  0  0  0  0  0  0  0  0  0  0
    1.1382   -0.2790    0.0000 C   0  0  0  0  0  0  0  0  0  0  0  0
    1.8527    0.1335    0.0000 C   0  0  0  0  0  0  0  0  0  0  0  0
   -0.2907   -0.2790    0.0000 O   0  0  0  0  0  0  0  0  0  0  0  0
    2.5672   -0.2790    0.0000 N   0  0  0  0  0  0  0  0  0  0  0  0
    1.1382   -1.1040    0.0000 C   0  0  0  0  0  0  0  0  0  0  0  0
    1.8527   -1.5165    0.0000 C   0  0  0  0  0  0  0  0  0  0  0  0
    1.8527   -2.3415    0.0000 C   0  0  0  0  0  0  0  0  0  0  0  0
    1.1382   -2.7540    0.0000 C   0  0  0  0  0  0  0  0  0  0  0  0
    0.4238   -2.3415    0.0000 C   0  0  0  0  0  0  0  0  0  0  0  0
    0.4238   -1.5165    0.0000 C   0  0  0  0  0  0  0  0  0  0  0  0
    3.9961    2.1960    0.0000 F   0  0  0  0  0  0  0  0  0  0  0  0
    2.5672    4.6710    0.0000 F   0  0  0  0  0  0  0  0  0  0  0  0
   -0.2907   -1.1040    0.0000 F   0  0  0  0  0  0  0  0  0  0  0  0
    2.5672   -1.1040    0.0000 F   0  0  0  0  0  0  0  0  0  0  0  0
    1.1382   -3.5790    0.0000 O   0  0  0  0  0  0  0  0  0  0  0  0
    1.8527   -3.9915    0.0000 C   0  0  0  0  0  0  0  0  0  0  0  0
 13 14  2  0
 14  8  1  0
  4  7  1  0
 12 15  1  0
  3  4  2  0
 14 16  1  0
  7  8  1  0
 13 17  1  0
 17 18  2  0
  7  9  2  0
 18 19  1  0
  4  5  1  0
 19 20  2  0
  8 10  2  0
 20 21  1  0
  2  3  1  0
 21 22  2  0
 22 17  1  0
 10 11  1  0
  5 23  1  0
  5  6  2  0
  1 24  1  0
 11 12  2  0
 22 25  1  0
  6  1  1  0
 18 26  1  0
 12 13  1  0
 20 27  1  0
  1  2  2  0
 27 28  1  0
M  CHG  2  12   1  15  -1
M  END

> <chembl_id>
CHEMBL551189

> <chembl_pref_name>
None

$$$$

     RDKit          2D

 28 31  0  0  0  0  0  0  0  0999 V2000
   -1.6252    2.3077    0.0000 C   0  0  0  0  0  0  0  0  0  0  0  0
   -2.0681    1.6088    0.0000 C   0  0  0  0  0  0  0  0  0  0  0  0
   -1.6842    0.8780    0.0000 C   0  0  0  0  0  0  0  0  0  0  0  0
   -0.8578    0.8448    0.0000 C   0  0  0  0  0  0  0  0  0  0  0  0
   -0.4166    1.5485    0.0000 C   0  0  0  0  0  0  0  0  0  0  0  0
   -0.8030    2.2765    0.0000 C   0  0  0  0  0  0  0  0  0  0  0  0
    0.4045    1.5193    0.0000 C   0  0  0  0  0  0  0  0  0  0  0  0
    0.7904    0.7889    0.0000 C   0  0  0  0  0  0  0  0  0  0  0  0
    1.6141    0.7588    0.0000 C   0  0  0  0  0  0  0  0  0  0  0  0
    2.0529    1.4585    0.0000 C   0  0  0  0  0  0  0  0  0  0  0  0
    1.6620    2.1899    0.0000 C   0  0  0  0  0  0  0  0  0  0  0  0
    0.8396    2.2163    0.0000 C   0  0  0  0  0  0  0  0  0  0  0  0
    0.4511    2.9441    0.0000 C   0  0  0  0  0  0  0  0  0  0  0  0
   -2.8924    1.6423    0.0000 C   0  0  0  0  0  0  0  0  0  0  0  0
   -3.2756    2.3729    0.0000 O   0  0  0  0  0  0  0  0  0  0  0  0
   -3.3335    0.9452    0.0000 N   0  0  0  0  0  0  0  0  0  0  0  0
   -4.1579    0.9786    0.0000 C   0  0  0  0  0  0  0  0  0  0  0  0
   -4.5990    0.2815    0.0000 C   0  0  0  0  0  0  0  0  0  0  0  0
   -5.3284   -0.1045    0.0000 C   0  0  0  0  0  0  0  0  0  0  0  0
   -4.6313   -0.5456    0.0000 C   0  0  0  0  0  0  0  0  0  0  0  0
    2.0002    0.0298    0.0000 C   0  0  0  0  0  0  0  0  0  0  0  0
    1.5619   -0.6692    0.0000 O   0  0  0  0  0  0  0  0  0  0  0  0
    2.8246   -0.0003    0.0000 N   0  0  0  0  0  0  0  0  0  0  0  0
    3.2108   -0.7294    0.0000 C   0  0  0  0  0  0  0  0  0  0  0  0
    2.8510   -1.4701    0.0000 S   0  0  0  0  0  0  0  0  0  0  0  0
    3.4435   -2.0441    0.0000 C   0  0  0  0  0  0  0  0  0  0  0  0
    4.1726   -1.6579    0.0000 N   0  0  0  0  0  0  0  0  0  0  0  0
    4.0305   -0.8453    0.0000 N   0  0  0  0  0  0  0  0  0  0  0  0
  1  2  2  0
  2 14  1  0
  3  4  2  0
 14 15  2  0
  7  8  2  0
 14 16  1  0
 16 17  1  0
  8  9  1  0
 17 18  1  0
 19 18  1  0
 20 19  1  0
 18 20  1  0
  4  5  1  0
  9 10  2  0
  2  3  1  0
  9 21  1  0
 10 11  1  0
 21 22  2  0
  5  6  2  0
 21 23  1  0
 11 12  2  0
 23 24  1  0
 24 25  1  0
 12  7  1  0
  5  7  1  0
  6  1  1  0
 12 13  1  0
 25 26  1  0
 26 27  2  0
 27 28  1  0
 28 24  2  0
M  END

> <chembl_id>
CHEMBL478650

> <chembl_pref_name>
None

$$$$

     RDKit          2D

 32 35  0  0  1  0  0  0  0  0999 V2000
   13.0098   -6.6833    0.0000 C   0  0  0  0  0  0  0  0  0  0  0  0
   13.0109   -7.5107    0.0000 C   0  0  0  0  0  0  0  0  0  0  0  0
   12.2961   -7.9235    0.0000 N   0  0  0  0  0  0  0  0  0  0  0  0
   11.5797   -7.5102    0.0000 C   0  0  0  0  0  0  0  0  0  0  0  0
   11.5825   -6.6797    0.0000 C   0  0  0  0  0  0  0  0  0  0  0  0
   12.2979   -6.2705    0.0000 C   0  0  0  0  0  0  0  0  0  0  0  0
   12.3032   -5.4484    0.0000 C   0  0  0  0  0  0  0  0  0  0  0  0
   11.5883   -5.0344    0.0000 C   0  0  0  0  0  0  0  0  0  0  0  0
   11.5904   -4.2101    0.0000 C   0  0  0  0  0  0  0  0  0  0  0  0
   12.3067   -3.7990    0.0000 N   0  0  0  0  0  0  0  0  0  0  0  0
   13.0223   -4.2180    0.0000 C   0  0  0  0  0  0  0  0  0  0  0  0
   13.0167   -5.0409    0.0000 C   0  0  0  0  0  0  0  0  0  0  0  0
   10.8770   -3.7959    0.0000 N   0  0  0  0  0  0  0  0  0  0  0  0
   10.1615   -4.2066    0.0000 C   0  0  0  0  0  0  0  0  0  0  0  0
   10.1632   -5.0303    0.0000 C   0  0  0  0  0  0  0  0  0  0  0  0
    9.4486   -5.4409    0.0000 C   0  0  0  0  0  0  0  0  0  0  0  0
    8.7341   -5.0265    0.0000 C   0  0  0  0  0  0  0  0  0  0  0  0
    8.7389   -4.1973    0.0000 C   0  0  0  0  0  0  0  0  0  0  0  0
    9.4541   -3.7904    0.0000 C   0  0  0  0  0  0  0  0  0  0  0  0
   13.7257   -7.9226    0.0000 N   0  0  0  0  0  0  0  0  0  0  0  0
   14.4399   -7.5095    0.0000 C   0  0  0  0  0  0  0  0  0  0  0  0
   15.1547   -7.9215    0.0000 C   0  0  0  0  0  0  0  0  0  0  0  0
   14.4392   -6.6845    0.0000 O   0  0  0  0  0  0  0  0  0  0  0  0
   15.1528   -8.7467    0.0000 C   0  0  0  0  0  0  0  0  0  0  0  0
   15.8635   -9.1586    0.0000 N   0  0  0  0  0  0  0  0  0  0  0  0
   16.5801   -8.7490    0.0000 C   0  0  0  0  0  0  0  0  0  0  0  0
   16.5814   -7.9231    0.0000 C   0  0  0  0  0  0  0  0  0  0  0  0
   15.8661   -7.5067    0.0000 C   0  0  0  0  0  0  0  0  0  0  0  0
   15.8610   -9.9836    0.0000 C   0  0  0  0  0  0  0  0  0  0  0  0
   15.1453  -10.3939    0.0000 O   0  0  0  0  0  0  0  0  0  0  0  0
   16.5743  -10.3982    0.0000 C   0  0  0  0  0  0  0  0  0  0  0  0
    8.0181   -5.4363    0.0000 F   0  0  0  0  0  0  0  0  0  0  0  0
  7  8  2  0
 15 16  2  0
 16 17  1  0
  8  9  1  0
 17 18  2  0
  4  5  2  0
 18 19  1  0
 19 14  2  0
  9 10  2  0
  2 20  1  0
  2  3  2  0
 20 21  1  0
 10 11  1  0
 22 21  1  1
  5  6  1  0
 21 23  2  0
 22 24  1  0
 11 12  2  0
 12  7  1  0
  6  7  1  0
  6  1  2  0
  9 13  1  0
 22 28  1  0
 24 25  1  0
 25 26  1  0
 26 27  1  0
 27 28  1  0
  1  2  1  0
 25 29  1  0
 13 14  1  0
 29 30  2  0
  3  4  1  0
 29 31  1  0
 14 15  1  0
 17 32  1  0
M  END

> <chembl_id>
CHEMBL202666

> <chembl_pref_name>
None

$$$$

     RDKit          2D

 38 42  0  0  0  0  0  0  0  0999 V2000
   -3.4590   -1.4152    0.0000 N   0  0  0  0  0  0  0  0  0  0  0  0
   -4.2840   -1.4140    0.0000 C   0  0  0  0  0  0  0  0  0  0  0  0
   -4.6976   -2.1279    0.0000 C   0  0  0  0  0  0  0  0  0  0  0  0
   -3.0455   -0.7013    0.0000 C   0  0  0  0  0  0  0  0  0  0  0  0
   -0.2294   -1.5319    0.0000 N   0  0  0  0  0  0  0  0  0  0  0  0
    0.4870   -1.1185    0.0000 C   0  0  0  0  0  0  0  0  0  0  0  0
    0.4841   -0.2880    0.0000 N   0  0  0  0  0  0  0  0  0  0  0  0
   -0.2313    0.1211    0.0000 C   0  0  0  0  0  0  0  0  0  0  0  0
   -0.9443   -1.1190    0.0000 N   0  0  0  0  0  0  0  0  0  0  0  0
   -0.9430   -0.2901    0.0000 C   0  0  0  0  0  0  0  0  0  0  0  0
   -1.7310   -0.0327    0.0000 C   0  0  0  0  0  0  0  0  0  0  0  0
   -2.2193   -0.7026    0.0000 C   0  0  0  0  0  0  0  0  0  0  0  0
   -1.7330   -1.3739    0.0000 C   0  0  0  0  0  0  0  0  0  0  0  0
   -1.9847    0.7523    0.0000 C   0  0  0  0  0  0  0  0  0  0  0  0
   -0.2331    0.9461    0.0000 N   0  0  0  0  0  0  0  0  0  0  0  0
    0.4805    1.3602    0.0000 C   0  0  0  0  0  0  0  0  0  0  0  0
    1.1928    0.9463    0.0000 C   0  0  0  0  0  0  0  0  0  0  0  0
    1.9059    1.3597    0.0000 C   0  0  0  0  0  0  0  0  0  0  0  0
    1.9045    2.1856    0.0000 C   0  0  0  0  0  0  0  0  0  0  0  0
    1.1841    2.5963    0.0000 C   0  0  0  0  0  0  0  0  0  0  0  0
    0.4740    2.1806    0.0000 C   0  0  0  0  0  0  0  0  0  0  0  0
   -0.2434    2.5881    0.0000 C   0  0  0  0  0  0  0  0  0  0  0  0
    2.6210    0.9484    0.0000 N   0  0  0  0  0  0  0  0  0  0  0  0
    3.3348    1.3621    0.0000 C   0  0  0  0  0  0  0  0  0  0  0  0
    4.0500    0.9509    0.0000 C   0  0  0  0  0  0  0  0  0  0  0  0
    3.3334    2.1871    0.0000 O   0  0  0  0  0  0  0  0  0  0  0  0
    4.0486    0.1281    0.0000 C   0  0  0  0  0  0  0  0  0  0  0  0
    4.7630   -0.2831    0.0000 C   0  0  0  0  0  0  0  0  0  0  0  0
    5.4777    0.1307    0.0000 N   0  0  0  0  0  0  0  0  0  0  0  0
    5.4736    0.9599    0.0000 C   0  0  0  0  0  0  0  0  0  0  0  0
    4.7587    1.3674    0.0000 C   0  0  0  0  0  0  0  0  0  0  0  0
   -3.4569    0.0138    0.0000 O   0  0  0  0  0  0  0  0  0  0  0  0
    6.1859    1.3762    0.0000 N   0  0  0  0  0  0  0  0  0  0  0  0
    6.9021    0.9621    0.0000 C   0  0  0  0  0  0  0  0  0  0  0  0
    7.6123    1.3748    0.0000 C   0  0  0  0  0  0  0  0  0  0  0  0
    7.6122    2.2002    0.0000 O   0  0  0  0  0  0  0  0  0  0  0  0
    6.8957    2.6111    0.0000 C   0  0  0  0  0  0  0  0  0  0  0  0
    6.1793    2.1967    0.0000 C   0  0  0  0  0  0  0  0  0  0  0  0
 18 19  2  0
  9  5  1  0
 19 20  1  0
  2  3  1  0
 20 21  2  0
 21 16  1  0
  5  6  2  0
 21 22  1  0
  2  1  1  0
 18 23  1  0
 10 11  2  0
 23 24  1  0
 11 12  1  0
 24 25  1  0
 12 13  2  0
 24 26  2  0
 13  9  1  0
 25 27  2  0
  6  7  1  0
 27 28  1  0
 11 14  1  0
 28 29  2  0
  1  4  1  0
 29 30  1  0
  8 15  1  0
 30 31  2  0
 31 25  1  0
 12  4  1  0
  7  8  2  0
  4 32  2  0
 15 16  1  0
 30 33  1  0
 33 34  1  0
  8 10  1  0
 16 17  2  0
  9 10  1  0
 17 18  1  0
 33 38  1  0
 34 35  1  0
 35 36  1  0
 36 37  1  0
 37 38  1  0
M  END

> <chembl_id>
CHEMBL262608

> <chembl_pref_name>
None

$$$$

     RDKit          2D

 26 27  0  0  0  0  0  0  0  0999 V2000
   -1.8000    0.5083    0.0000 C   0  0  0  0  0  0  0  0  0  0  0  0
   -1.3208    0.1583    0.0000 C   0  0  0  0  0  0  0  0  0  0  0  0
   -2.2875    0.1583    0.0000 S   0  0  0  0  0  0  0  0  0  0  0  0
   -2.1000   -0.4167    0.0000 C   0  0  0  0  0  0  0  0  0  0  0  0
   -1.5000   -0.4167    0.0000 C   0  0  0  0  0  0  0  0  0  0  0  0
   -1.8083    1.1083    0.0000 C   0  0  0  0  0  0  0  0  0  0  0  0
   -0.3000   -0.0625    0.0000 C   0  0  0  0  0  0  0  0  0  0  0  0
   -0.7458    0.3375    0.0000 N   0  0  0  0  0  0  0  0  0  0  0  0
   -2.4583   -0.9042    0.0000 C   0  0  0  0  0  0  0  0  0  0  0  0
   -1.2833    1.4083    0.0000 O   0  0  0  0  0  0  0  0  0  0  0  0
    0.2667    0.1208    0.0000 N   0  0  0  0  0  0  0  0  0  0  0  0
   -2.3208    1.4083    0.0000 O   0  0  0  0  0  0  0  0  0  0  0  0
   -0.4250   -0.6500    0.0000 O   0  0  0  0  0  0  0  0  0  0  0  0
    0.7167   -0.2792    0.0000 C   0  0  0  0  0  0  0  0  0  0  0  0
    1.6042   -1.0792    0.0000 C   0  0  0  0  0  0  0  0  0  0  0  0
    1.2792   -0.0917    0.0000 C   0  0  0  0  0  0  0  0  0  0  0  0
    0.5875   -0.8667    0.0000 C   0  0  0  0  0  0  0  0  0  0  0  0
    1.0292   -1.2667    0.0000 C   0  0  0  0  0  0  0  0  0  0  0  0
    1.7292   -0.4917    0.0000 C   0  0  0  0  0  0  0  0  0  0  0  0
   -1.2833    2.0083    0.0000 C   0  0  0  0  0  0  0  0  0  0  0  0
   -3.0500   -0.8417    0.0000 C   0  0  0  0  0  0  0  0  0  0  0  0
   -2.2125   -1.4542    0.0000 C   0  0  0  0  0  0  0  0  0  0  0  0
   -2.8833   -1.3250    0.0000 C   0  0  0  0  0  0  0  0  0  0  0  0
    2.0500   -1.4792    0.0000 C   0  0  0  0  0  0  0  0  0  0  0  0
   -0.7625    2.3083    0.0000 C   0  0  0  0  0  0  0  0  0  0  0  0
   -1.8083    2.3083    0.0000 C   0  0  0  0  0  0  0  0  0  0  0  0
  2  1  2  0
  3  1  1  0
  4  3  1  0
  5  2  1  0
  6  1  1  0
  7  8  1  0
  8  2  1  0
  9  4  1  0
 10  6  1  0
 11  7  1  0
 12  6  2  0
 13  7  2  0
 14 11  1  0
 15 18  2  0
 16 14  1  0
 17 14  2  0
 18 17  1  0
 19 16  2  0
 20 10  1  0
 21  9  1  0
 22  9  1  0
 23  9  1  0
 24 15  1  0
 25 20  1  0
 26 20  1  0
  4  5  2  0
 19 15  1  0
M  END

> <chembl_id>
CHEMBL19086

> <chembl_pref_name>
None

$$$$

     RDKit          2D

 27 30  0  0  0  0  0  0  0  0999 V2000
    5.9402   -9.5193    0.0000 C   0  0  0  0  0  0  0  0  0  0  0  0
    6.6547   -9.9318    0.0000 C   0  0  0  0  0  0  0  0  0  0  0  0
    6.6547  -10.7568    0.0000 C   0  0  0  0  0  0  0  0  0  0  0  0
    5.9402  -11.1693    0.0000 C   0  0  0  0  0  0  0  0  0  0  0  0
    5.2257  -10.7568    0.0000 C   0  0  0  0  0  0  0  0  0  0  0  0
    5.2257   -9.9318    0.0000 C   0  0  0  0  0  0  0  0  0  0  0  0
    5.9402  -11.9943    0.0000 C   0  0  0  0  0  0  0  0  0  0  0  0
    5.2257  -12.4068    0.0000 C   0  0  0  0  0  0  0  0  0  0  0  0
    6.6547  -12.4068    0.0000 O   0  0  0  0  0  0  0  0  0  0  0  0
    4.5113  -11.9943    0.0000 C   0  0  0  0  0  0  0  0  0  0  0  0
    3.7968  -12.4068    0.0000 C   0  0  0  0  0  0  0  0  0  0  0  0
    3.7968  -13.2318    0.0000 N   0  0  0  0  0  0  0  0  0  0  0  0
    4.5113  -13.6443    0.0000 C   0  0  0  0  0  0  0  0  0  0  0  0
    5.2257  -13.2318    0.0000 C   0  0  0  0  0  0  0  0  0  0  0  0
    3.0823  -13.6443    0.0000 O   0  0  0  0  0  0  0  0  0  0  0  0
    5.9402  -13.6443    0.0000 N   0  0  0  0  0  0  0  0  0  0  0  0
    4.5113  -14.4693    0.0000 C   0  0  0  0  0  0  0  0  0  0  0  0
    4.5113  -11.1693    0.0000 F   0  0  0  0  0  0  0  0  0  0  0  0
    5.9402   -8.6943    0.0000 F   0  0  0  0  0  0  0  0  0  0  0  0
    5.2257  -14.8818    0.0000 C   0  0  0  0  0  0  0  0  0  0  0  0
    5.2257  -15.7068    0.0000 C   0  0  0  0  0  0  0  0  0  0  0  0
    4.5113  -16.1193    0.0000 C   0  0  0  0  0  0  0  0  0  0  0  0
    3.7968  -14.8818    0.0000 C   0  0  0  0  0  0  0  0  0  0  0  0
    3.7968  -15.7068    0.0000 C   0  0  0  0  0  0  0  0  0  0  0  0
    3.0122  -15.9617    0.0000 O   0  0  0  0  0  0  0  0  0  0  0  0
    2.5272  -15.2943    0.0000 C   0  0  0  0  0  0  0  0  0  0  0  0
    3.0122  -14.6268    0.0000 O   0  0  0  0  0  0  0  0  0  0  0  0
  1  2  2  0
 13 14  2  0
 14  8  1  0
  4  7  1  0
 12 15  1  0
  3  4  2  0
 14 16  1  0
  7  8  1  0
 13 17  1  0
  5 18  1  0
  7  9  2  0
  1 19  1  0
  4  5  1  0
 17 20  2  0
  8 10  2  0
 20 21  1  0
  2  3  1  0
 21 22  2  0
 22 24  1  0
 23 17  1  0
 23 24  2  0
 10 11  1  0
  5  6  2  0
 11 12  2  0
  6  1  1  0
 12 13  1  0
 24 25  1  0
 25 26  1  0
 26 27  1  0
 27 23  1  0
M  CHG  2  12   1  15  -1
M  END

> <chembl_id>
CHEMBL552375

> <chembl_pref_name>
None

$$$$

     RDKit          2D

 34 37  0  0  0  0  0  0  0  0999 V2000
    2.5176  -21.1841    0.0000 N   0  0  0  0  0  0  0  0  0  0  0  0
   -3.1906  -21.1997    0.0000 C   0  0  0  0  0  0  0  0  0  0  0  0
   -3.1906  -22.0255    0.0000 C   0  0  0  0  0  0  0  0  0  0  0  0
   -2.4779  -22.4342    0.0000 C   0  0  0  0  0  0  0  0  0  0  0  0
   -2.4779  -20.7826    0.0000 N   0  0  0  0  0  0  0  0  0  0  0  0
   -1.7652  -21.1997    0.0000 C   0  0  0  0  0  0  0  0  0  0  0  0
   -1.7668  -22.0236    0.0000 C   0  0  0  0  0  0  0  0  0  0  0  0
   -1.0551  -22.4352    0.0000 C   0  0  0  0  0  0  0  0  0  0  0  0
   -0.3414  -22.0240    0.0000 C   0  0  0  0  0  0  0  0  0  0  0  0
   -0.3438  -21.1969    0.0000 C   0  0  0  0  0  0  0  0  0  0  0  0
   -1.0560  -20.7890    0.0000 C   0  0  0  0  0  0  0  0  0  0  0  0
   -3.9070  -20.7889    0.0000 O   0  0  0  0  0  0  0  0  0  0  0  0
   -2.4779  -19.9568    0.0000 C   0  0  0  0  0  0  0  0  0  0  0  0
   -1.7570  -19.5433    0.0000 C   0  0  0  0  0  0  0  0  0  0  0  0
   -1.7567  -18.7182    0.0000 C   0  0  0  0  0  0  0  0  0  0  0  0
   -2.4724  -18.3059    0.0000 C   0  0  0  0  0  0  0  0  0  0  0  0
   -3.1899  -18.7218    0.0000 C   0  0  0  0  0  0  0  0  0  0  0  0
   -3.1868  -19.5455    0.0000 C   0  0  0  0  0  0  0  0  0  0  0  0
   -3.9016  -19.9590    0.0000 Cl  0  0  0  0  0  0  0  0  0  0  0  0
   -1.0425  -19.9573    0.0000 Cl  0  0  0  0  0  0  0  0  0  0  0  0
   -1.0553  -23.2598    0.0000 C   0  0  0  0  0  0  0  0  0  0  0  0
   -1.7724  -23.6715    0.0000 C   0  0  0  0  0  0  0  0  0  0  0  0
   -1.7734  -24.4965    0.0000 C   0  0  0  0  0  0  0  0  0  0  0  0
   -1.0581  -24.9108    0.0000 C   0  0  0  0  0  0  0  0  0  0  0  0
   -0.3402  -24.4941    0.0000 C   0  0  0  0  0  0  0  0  0  0  0  0
   -0.3427  -23.6704    0.0000 C   0  0  0  0  0  0  0  0  0  0  0  0
    0.3717  -23.2561    0.0000 Cl  0  0  0  0  0  0  0  0  0  0  0  0
    0.3701  -20.7817    0.0000 O   0  0  0  0  0  0  0  0  0  0  0  0
    1.0866  -21.1923    0.0000 C   0  0  0  0  0  0  0  0  0  0  0  0
    1.8003  -20.7771    0.0000 C   0  0  0  0  0  0  0  0  0  0  0  0
    2.5238  -22.0099    0.0000 C   0  0  0  0  0  0  0  0  0  0  0  0
    3.8914  -21.9756    0.0000 N   0  0  0  0  0  0  0  0  0  0  0  0
    3.1851  -22.4714    0.0000 C   0  0  0  0  0  0  0  0  0  0  0  0
    1.8660  -22.4810    0.0000 O   0  0  0  0  0  0  0  0  0  0  0  0
 16 17  1  0
  8  9  2  0
 17 18  2  0
 18 13  1  0
  4  7  1  0
 18 19  1  0
  9 10  1  0
 14 20  1  0
  6  5  1  0
 10 11  2  0
 21 22  2  0
 11  6  1  0
 22 23  1  0
 23 24  2  0
  2 12  2  0
 24 25  1  0
  2  3  1  0
 25 26  2  0
 26 21  1  0
  8 21  1  0
  5 13  1  0
 26 27  1  0
  6  7  2  0
 10 28  1  0
 13 14  2  0
 28 29  1  0
  2  5  1  0
 29 30  1  0
 30  1  1  0
 14 15  1  0
  1 31  1  0
  7  8  1  0
 15 16  2  0
  3  4  2  0
 32 33  1  0
 33 31  1  0
 31 34  2  0
M  END

> <chembl_id>
CHEMBL437024

> <chembl_pref_name>
None

$$$$

     RDKit          2D

 25 26  0  0  0  0  0  0  0  0999 V2000
   -1.6750   -3.1917    0.0000 C   0  0  0  0  0  0  0  0  0  0  0  0
   -2.1625   -3.5417    0.0000 N   0  0  0  0  0  0  0  0  0  0  0  0
   -1.9750   -4.1167    0.0000 C   0  0  0  0  0  0  0  0  0  0  0  0
   -1.1958   -3.5417    0.0000 C   0  0  0  0  0  0  0  0  0  0  0  0
   -1.3750   -4.1167    0.0000 C   0  0  0  0  0  0  0  0  0  0  0  0
   -0.1750   -3.7542    0.0000 C   0  0  0  0  0  0  0  0  0  0  0  0
   -0.6208   -3.3542    0.0000 N   0  0  0  0  0  0  0  0  0  0  0  0
   -1.6833   -2.5917    0.0000 C   0  0  0  0  0  0  0  0  0  0  0  0
   -2.3333   -4.6000    0.0000 C   0  0  0  0  0  0  0  0  0  0  0  0
    0.3917   -3.5750    0.0000 N   0  0  0  0  0  0  0  0  0  0  0  0
   -0.3000   -4.3417    0.0000 O   0  0  0  0  0  0  0  0  0  0  0  0
   -2.1958   -2.2917    0.0000 O   0  0  0  0  0  0  0  0  0  0  0  0
   -2.7458   -3.3792    0.0000 C   0  0  0  0  0  0  0  0  0  0  0  0
    0.8417   -3.9750    0.0000 C   0  0  0  0  0  0  0  0  0  0  0  0
   -1.1583   -2.2875    0.0000 O   0  0  0  0  0  0  0  0  0  0  0  0
    1.7292   -4.7750    0.0000 C   0  0  0  0  0  0  0  0  0  0  0  0
    2.1750   -5.1792    0.0000 F   0  0  0  0  0  0  0  0  0  0  0  0
    1.4042   -3.7875    0.0000 C   0  0  0  0  0  0  0  0  0  0  0  0
    0.7125   -4.5625    0.0000 C   0  0  0  0  0  0  0  0  0  0  0  0
    1.8500   -4.1792    0.0000 C   0  0  0  0  0  0  0  0  0  0  0  0
    1.1542   -4.9625    0.0000 C   0  0  0  0  0  0  0  0  0  0  0  0
   -2.7583   -5.0167    0.0000 C   0  0  0  0  0  0  0  0  0  0  0  0
   -2.9250   -4.5375    0.0000 C   0  0  0  0  0  0  0  0  0  0  0  0
   -2.0875   -5.1500    0.0000 C   0  0  0  0  0  0  0  0  0  0  0  0
   -1.1583   -1.6875    0.0000 C   0  0  0  0  0  0  0  0  0  0  0  0
  2  1  1  0
  3  2  1  0
  4  1  2  0
  5  4  1  0
  6  7  1  0
  7  4  1  0
  8  1  1  0
  9  3  1  0
 10  6  1  0
 11  6  2  0
 12  8  2  0
 13  2  1  0
 14 10  1  0
 15  8  1  0
 16 21  2  0
 17 16  1  0
 18 14  1  0
 19 14  2  0
 20 18  2  0
 21 19  1  0
 22  9  1  0
 23  9  1  0
 24  9  1  0
 25 15  1  0
  3  5  2  0
 20 16  1  0
M  END

> <chembl_id>
CHEMBL18709

> <chembl_pref_name>
None

$$$$

     RDKit          2D

 38 42  0  0  0  0  0  0  0  0999 V2000
   -1.2378  -11.7194    0.0000 N   0  0  0  0  0  0  0  0  0  0  0  0
   -0.5213  -11.3060    0.0000 C   0  0  0  0  0  0  0  0  0  0  0  0
   -0.5242  -10.4755    0.0000 N   0  0  0  0  0  0  0  0  0  0  0  0
   -1.2396  -10.0664    0.0000 C   0  0  0  0  0  0  0  0  0  0  0  0
   -1.9526  -11.3065    0.0000 N   0  0  0  0  0  0  0  0  0  0  0  0
   -1.9513  -10.4776    0.0000 C   0  0  0  0  0  0  0  0  0  0  0  0
   -2.7393  -10.2202    0.0000 C   0  0  0  0  0  0  0  0  0  0  0  0
   -3.2276  -10.8901    0.0000 C   0  0  0  0  0  0  0  0  0  0  0  0
   -2.7413  -11.5614    0.0000 C   0  0  0  0  0  0  0  0  0  0  0  0
   -2.9931   -9.4352    0.0000 C   0  0  0  0  0  0  0  0  0  0  0  0
   -1.2414   -9.2414    0.0000 N   0  0  0  0  0  0  0  0  0  0  0  0
   -0.5278   -8.8273    0.0000 C   0  0  0  0  0  0  0  0  0  0  0  0
    0.1844   -9.2412    0.0000 C   0  0  0  0  0  0  0  0  0  0  0  0
    0.8975   -8.8278    0.0000 C   0  0  0  0  0  0  0  0  0  0  0  0
    0.8962   -8.0019    0.0000 C   0  0  0  0  0  0  0  0  0  0  0  0
    0.1758   -7.5912    0.0000 C   0  0  0  0  0  0  0  0  0  0  0  0
   -0.5344   -8.0069    0.0000 C   0  0  0  0  0  0  0  0  0  0  0  0
   -1.2517   -7.5994    0.0000 C   0  0  0  0  0  0  0  0  0  0  0  0
    1.6127   -9.2391    0.0000 N   0  0  0  0  0  0  0  0  0  0  0  0
    2.3265   -8.8254    0.0000 C   0  0  0  0  0  0  0  0  0  0  0  0
    3.0416   -9.2366    0.0000 C   0  0  0  0  0  0  0  0  0  0  0  0
    2.3250   -8.0004    0.0000 O   0  0  0  0  0  0  0  0  0  0  0  0
    3.0403  -10.0594    0.0000 C   0  0  0  0  0  0  0  0  0  0  0  0
    3.7546  -10.4706    0.0000 C   0  0  0  0  0  0  0  0  0  0  0  0
    4.4694  -10.0568    0.0000 C   0  0  0  0  0  0  0  0  0  0  0  0
    4.4653   -9.2276    0.0000 C   0  0  0  0  0  0  0  0  0  0  0  0
    3.7504   -8.8201    0.0000 C   0  0  0  0  0  0  0  0  0  0  0  0
    3.7556  -11.2956    0.0000 F   0  0  0  0  0  0  0  0  0  0  0  0
    5.1776   -8.8113    0.0000 N   0  0  0  0  0  0  0  0  0  0  0  0
    5.8938   -9.2254    0.0000 C   0  0  0  0  0  0  0  0  0  0  0  0
    6.6040   -8.8127    0.0000 C   0  0  0  0  0  0  0  0  0  0  0  0
    6.6039   -7.9873    0.0000 O   0  0  0  0  0  0  0  0  0  0  0  0
    5.8874   -7.5764    0.0000 C   0  0  0  0  0  0  0  0  0  0  0  0
    5.1710   -7.9908    0.0000 C   0  0  0  0  0  0  0  0  0  0  0  0
   -4.0538  -10.8888    0.0000 C   0  0  0  0  0  0  0  0  0  0  0  0
   -4.4653  -10.1737    0.0000 N   0  0  0  0  0  0  0  0  0  0  0  0
   -4.4674  -11.6027    0.0000 O   0  0  0  0  0  0  0  0  0  0  0  0
   -5.2903  -10.1725    0.0000 C   0  0  0  0  0  0  0  0  0  0  0  0
 17 18  1  0
  8  9  2  0
 14 19  1  0
  9  5  1  0
 19 20  1  0
  4  6  1  0
 20 21  1  0
  7 10  1  0
 20 22  2  0
  5  6  1  0
 21 23  2  0
  4 11  1  0
 23 24  1  0
  1  2  2  0
 24 25  2  0
 11 12  1  0
 25 26  1  0
  5  1  1  0
 26 27  2  0
 27 21  1  0
 12 13  2  0
 24 28  1  0
  2  3  1  0
 26 29  1  0
 29 30  1  0
 13 14  1  0
 14 15  2  0
  3  4  2  0
 15 16  1  0
 29 34  1  0
 30 31  1  0
 31 32  1  0
 32 33  1  0
 33 34  1  0
  6  7  2  0
 16 17  2  0
 17 12  1  0
 35 36  1  0
 35 37  2  0
  8 35  1  0
  7  8  1  0
 36 38  1  0
M  END

> <chembl_id>
CHEMBL261005

> <chembl_pref_name>
None

$$$$

     RDKit          2D

 28 31  0  0  0  0  0  0  0  0999 V2000
   -1.7309    6.9020    0.0000 C   0  0  0  0  0  0  0  0  0  0  0  0
   -1.7309    7.7270    0.0000 C   0  0  0  0  0  0  0  0  0  0  0  0
   -2.4454    8.1395    0.0000 C   0  0  0  0  0  0  0  0  0  0  0  0
   -2.4454    8.9645    0.0000 C   0  0  0  0  0  0  0  0  0  0  0  0
   -1.7309    9.3770    0.0000 C   0  0  0  0  0  0  0  0  0  0  0  0
   -1.7309   10.2020    0.0000 N   0  0  0  0  0  0  0  0  0  0  0  0
   -2.4454   10.6145    0.0000 C   0  0  0  0  0  0  0  0  0  0  0  0
   -3.1599   10.2020    0.0000 O   0  0  0  0  0  0  0  0  0  0  0  0
   -2.4454   11.4395    0.0000 C   0  0  0  0  0  0  0  0  0  0  0  0
   -3.1128   11.9244    0.0000 C   0  0  0  0  0  0  0  0  0  0  0  0
   -2.8579   12.7090    0.0000 C   0  0  0  0  0  0  0  0  0  0  0  0
   -2.0329   12.7090    0.0000 O   0  0  0  0  0  0  0  0  0  0  0  0
   -1.7779   11.9244    0.0000 C   0  0  0  0  0  0  0  0  0  0  0  0
   -1.0164    8.9645    0.0000 C   0  0  0  0  0  0  0  0  0  0  0  0
   -1.0164    8.1395    0.0000 C   0  0  0  0  0  0  0  0  0  0  0  0
   -0.3020    7.7270    0.0000 C   0  0  0  0  0  0  0  0  0  0  0  0
    0.4125    8.1395    0.0000 C   0  0  0  0  0  0  0  0  0  0  0  0
    1.1270    7.7270    0.0000 C   0  0  0  0  0  0  0  0  0  0  0  0
    1.1270    6.9020    0.0000 C   0  0  0  0  0  0  0  0  0  0  0  0
    0.4125    6.4895    0.0000 C   0  0  0  0  0  0  0  0  0  0  0  0
   -0.3020    6.9020    0.0000 C   0  0  0  0  0  0  0  0  0  0  0  0
    1.8414    6.4895    0.0000 C   0  0  0  0  0  0  0  0  0  0  0  0
    2.5559    6.9020    0.0000 O   0  0  0  0  0  0  0  0  0  0  0  0
    1.8414    5.6645    0.0000 N   0  0  0  0  0  0  0  0  0  0  0  0
    2.5559    5.2520    0.0000 C   0  0  0  0  0  0  0  0  0  0  0  0
    2.5559    4.4270    0.0000 C   0  0  0  0  0  0  0  0  0  0  0  0
    2.9684    3.7125    0.0000 C   0  0  0  0  0  0  0  0  0  0  0  0
    2.1434    3.7125    0.0000 C   0  0  0  0  0  0  0  0  0  0  0  0
  1  2  1  0
  2  3  2  0
  3  4  1  0
  4  5  2  0
  5  6  1  0
  6  7  1  0
  7  8  2  0
  7  9  1  0
  9 10  1  0
 10 11  2  0
 11 12  1  0
 12 13  1  0
  9 13  2  0
  5 14  1  0
 14 15  2  0
  2 15  1  0
 15 16  1  0
 16 17  2  0
 17 18  1  0
 18 19  2  0
 19 20  1  0
 20 21  2  0
 16 21  1  0
 19 22  1  0
 22 23  2  0
 22 24  1  0
 24 25  1  0
 25 26  1  0
 26 27  1  0
 27 28  1  0
 26 28  1  0
M  END

> <chembl_id>
CHEMBL477583

> <chembl_pref_name>
GW743024X

$$$$

     RDKit          2D

 28 30  0  0  0  0  0  0  0  0999 V2000
    1.4000    1.4708    0.0000 C   0  0  0  0  0  0  0  0  0  0  0  0
    0.4417    0.5333    0.0000 N   0  0  0  0  0  0  0  0  0  0  0  0
    0.6667    1.8500    0.0000 C   0  0  0  0  0  0  0  0  0  0  0  0
    1.2625    0.6583    0.0000 N   0  0  0  0  0  0  0  0  0  0  0  0
    0.0792    1.2708    0.0000 C   0  0  0  0  0  0  0  0  0  0  0  0
    2.1667    1.7583    0.0000 N   0  0  0  0  0  0  0  0  0  0  0  0
    2.8042    1.2333    0.0000 C   0  0  0  0  0  0  0  0  0  0  0  0
   -0.7333    1.3958    0.0000 C   0  0  0  0  0  0  0  0  0  0  0  0
    3.5667    1.5208    0.0000 N   0  0  0  0  0  0  0  0  0  0  0  0
    2.6667    0.4208    0.0000 O   0  0  0  0  0  0  0  0  0  0  0  0
    4.2042    0.9875    0.0000 C   0  0  0  0  0  0  0  0  0  0  0  0
    5.6917   -3.0292    0.0000 C   0  0  0  0  0  0  0  0  0  0  0  0
    5.9667   -1.4042    0.0000 C   0  0  0  0  0  0  0  0  0  0  0  0
    5.4667   -0.0667    0.0000 C   0  0  0  0  0  0  0  0  0  0  0  0
    6.1042   -0.6000    0.0000 C   0  0  0  0  0  0  0  0  0  0  0  0
    1.8375    0.0708    0.0000 C   0  0  0  0  0  0  0  0  0  0  0  0
    5.5667   -3.8542    0.0000 N   0  0  0  0  0  0  0  0  0  0  0  0
    4.9792    1.2708    0.0000 C   0  0  0  0  0  0  0  0  0  0  0  0
    4.0667    0.1750    0.0000 C   0  0  0  0  0  0  0  0  0  0  0  0
    6.4625   -2.7417    0.0000 C   0  0  0  0  0  0  0  0  0  0  0  0
    5.0542   -2.5042    0.0000 C   0  0  0  0  0  0  0  0  0  0  0  0
    5.6125    0.7458    0.0000 C   0  0  0  0  0  0  0  0  0  0  0  0
    5.1917   -1.6917    0.0000 C   0  0  0  0  0  0  0  0  0  0  0  0
    6.6000   -1.9292    0.0000 C   0  0  0  0  0  0  0  0  0  0  0  0
    4.6917   -0.3500    0.0000 C   0  0  0  0  0  0  0  0  0  0  0  0
   -0.8583    0.5750    0.0000 C   0  0  0  0  0  0  0  0  0  0  0  0
   -1.5500    1.5208    0.0000 C   0  0  0  0  0  0  0  0  0  0  0  0
   -0.6083    2.2083    0.0000 C   0  0  0  0  0  0  0  0  0  0  0  0
  2  4  1  0
  3  1  2  0
  4  1  1  0
  5  3  1  0
  6  1  1  0
  7  6  1  0
  8  5  1  0
  9  7  1  0
 10  7  2  0
 11  9  1  0
 12 20  1  0
 13 15  1  0
 14 25  2  0
 15 14  1  0
 16  4  1  0
 17 12  1  0
 18 11  1  0
 19 11  2  0
 20 24  2  0
 21 23  1  0
 22 18  2  0
 23 13  2  0
 24 13  1  0
 25 19  1  0
 26  8  1  0
 27  8  1  0
 28  8  1  0
  5  2  2  0
 14 22  1  0
 21 12  2  0
M  END

> <chembl_id>
CHEMBL39931

> <chembl_pref_name>
None

$$$$

     RDKit          2D

 27 30  0  0  0  0  0  0  0  0999 V2000
   11.0809   -4.6262    0.0000 C   0  0  0  0  0  0  0  0  0  0  0  0
   10.7482   -5.3887    0.0000 C   0  0  0  0  0  0  0  0  0  0  0  0
    9.9230   -5.4806    0.0000 C   0  0  0  0  0  0  0  0  0  0  0  0
    9.4298   -4.8109    0.0000 C   0  0  0  0  0  0  0  0  0  0  0  0
    9.7676   -4.0470    0.0000 C   0  0  0  0  0  0  0  0  0  0  0  0
   10.5916   -3.9586    0.0000 C   0  0  0  0  0  0  0  0  0  0  0  0
   11.9055   -4.5344    0.0000 F   0  0  0  0  0  0  0  0  0  0  0  0
    8.6073   -4.9051    0.0000 C   0  0  0  0  0  0  0  0  0  0  0  0
    8.1957   -5.6256    0.0000 C   0  0  0  0  0  0  0  0  0  0  0  0
    7.3834   -5.4567    0.0000 N   0  0  0  0  0  0  0  0  0  0  0  0
    7.2928   -4.6320    0.0000 C   0  0  0  0  0  0  0  0  0  0  0  0
    8.0494   -4.2911    0.0000 C   0  0  0  0  0  0  0  0  0  0  0  0
    8.5366   -6.3820    0.0000 C   0  0  0  0  0  0  0  0  0  0  0  0
    9.3616   -6.4632    0.0000 C   0  0  0  0  0  0  0  0  0  0  0  0
    9.7026   -7.2189    0.0000 C   0  0  0  0  0  0  0  0  0  0  0  0
    9.2178   -7.8933    0.0000 N   0  0  0  0  0  0  0  0  0  0  0  0
    8.3883   -7.8071    0.0000 C   0  0  0  0  0  0  0  0  0  0  0  0
    8.0512   -7.0514    0.0000 C   0  0  0  0  0  0  0  0  0  0  0  0
    6.5765   -4.2198    0.0000 C   0  0  0  0  0  0  0  0  0  0  0  0
    5.8595   -4.6395    0.0000 C   0  0  0  0  0  0  0  0  0  0  0  0
    5.1396   -4.2287    0.0000 C   0  0  0  0  0  0  0  0  0  0  0  0
    5.1354   -3.3980    0.0000 C   0  0  0  0  0  0  0  0  0  0  0  0
    5.8572   -2.9802    0.0000 C   0  0  0  0  0  0  0  0  0  0  0  0
    6.5741   -3.3935    0.0000 C   0  0  0  0  0  0  0  0  0  0  0  0
    4.4157   -2.9854    0.0000 S   0  0  0  0  0  0  0  0  0  0  0  0
    3.6984   -3.4025    0.0000 C   0  0  0  0  0  0  0  0  0  0  0  0
    4.4130   -2.1558    0.0000 O   0  0  0  0  0  0  0  0  0  0  0  0
  9 13  1  0
  1  2  2  0
 13 14  2  0
  1  7  1  0
 14 15  1  0
  8  9  2  0
 15 16  2  0
  3  4  2  0
 16 17  1  0
 17 18  2  0
 18 13  1  0
  4  5  1  0
  2  3  1  0
 19 20  2  0
  5  6  2  0
 20 21  1  0
  9 10  1  0
 21 22  2  0
 10 11  1  0
 22 23  1  0
 11 12  2  0
 23 24  2  0
 24 19  1  0
 11 19  1  0
 12  8  1  0
 22 25  1  0
  4  8  1  0
 25 26  1  0
  6  1  1  0
 25 27  1  0
M  CHG  2  25   1  27  -1
M  END

> <chembl_id>
CHEMBL155687

> <chembl_pref_name>
None

$$$$

     RDKit          2D

 21 22  0  0  0  0  0  0  0  0999 V2000
    0.2792   -2.5375    0.0000 C   0  0  0  0  0  0  0  0  0  0  0  0
    0.2875   -3.3625    0.0000 C   0  0  0  0  0  0  0  0  0  0  0  0
   -0.5083   -2.2875    0.0000 C   0  0  0  0  0  0  0  0  0  0  0  0
   -0.4958   -3.6250    0.0000 N   0  0  0  0  0  0  0  0  0  0  0  0
    1.7750   -3.5250    0.0000 C   0  0  0  0  0  0  0  0  0  0  0  0
    0.9917   -3.7917    0.0000 N   0  0  0  0  0  0  0  0  0  0  0  0
   -0.9875   -2.9542    0.0000 O   0  0  0  0  0  0  0  0  0  0  0  0
    3.2000   -3.5167    0.0000 C   0  0  0  0  0  0  0  0  0  0  0  0
    2.4875   -3.9375    0.0000 N   0  0  0  0  0  0  0  0  0  0  0  0
   -0.8625   -1.5417    0.0000 C   0  0  0  0  0  0  0  0  0  0  0  0
    3.9167   -3.9292    0.0000 C   0  0  0  0  0  0  0  0  0  0  0  0
    3.1917   -2.7000    0.0000 C   0  0  0  0  0  0  0  0  0  0  0  0
    1.7667   -2.7000    0.0000 O   0  0  0  0  0  0  0  0  0  0  0  0
    4.6250   -3.5125    0.0000 C   0  0  0  0  0  0  0  0  0  0  0  0
    3.9000   -2.2792    0.0000 C   0  0  0  0  0  0  0  0  0  0  0  0
    4.6167   -2.6875    0.0000 C   0  0  0  0  0  0  0  0  0  0  0  0
    5.3417   -3.9250    0.0000 Br  0  0  0  0  0  0  0  0  0  0  0  0
    3.8917   -1.4542    0.0000 Br  0  0  0  0  0  0  0  0  0  0  0  0
   -1.2833   -0.8292    0.0000 C   0  0  0  0  0  0  0  0  0  0  0  0
   -0.1333   -1.1542    0.0000 C   0  0  0  0  0  0  0  0  0  0  0  0
   -1.5833   -1.9417    0.0000 C   0  0  0  0  0  0  0  0  0  0  0  0
  2  1  1  0
  3  1  2  0
  4  2  2  0
  5  6  1  0
  6  2  1  0
  7  3  1  0
  8  9  1  0
  9  5  1  0
 10  3  1  0
 11  8  2  0
 12  8  1  0
 13  5  2  0
 14 11  1  0
 15 12  2  0
 16 15  1  0
 17 14  1  0
 18 15  1  0
 19 10  1  0
 20 10  1  0
 21 10  1  0
  4  7  1  0
 16 14  2  0
M  END

> <chembl_id>
CHEMBL62665

> <chembl_pref_name>
None

$$$$

     RDKit          2D

 30 33  0  0  0  0  0  0  0  0999 V2000
    4.9792   -3.4917    0.0000 C   0  0  0  0  0  0  0  0  0  0  0  0
    4.8542   -2.6792    0.0000 C   0  0  0  0  0  0  0  0  0  0  0  0
    5.7917   -3.6167    0.0000 N   0  0  0  0  0  0  0  0  0  0  0  0
    3.4042   -0.2167    0.0000 N   0  0  0  0  0  0  0  0  0  0  0  0
    4.1042    0.1875    0.0000 C   0  0  0  0  0  0  0  0  0  0  0  0
    5.5792   -2.3042    0.0000 S   0  0  0  0  0  0  0  0  0  0  0  0
    3.4042   -1.0500    0.0000 C   0  0  0  0  0  0  0  0  0  0  0  0
    6.1542   -2.8792    0.0000 C   0  0  0  0  0  0  0  0  0  0  0  0
    4.1417   -2.2792    0.0000 C   0  0  0  0  0  0  0  0  0  0  0  0
    4.4292   -4.1000    0.0000 C   0  0  0  0  0  0  0  0  0  0  0  0
    4.1292   -1.4542    0.0000 C   0  0  0  0  0  0  0  0  0  0  0  0
    2.6917   -1.4750    0.0000 N   0  0  0  0  0  0  0  0  0  0  0  0
    4.1042    1.0208    0.0000 O   0  0  0  0  0  0  0  0  0  0  0  0
    4.8292   -0.2167    0.0000 C   0  0  0  0  0  0  0  0  0  0  0  0
    4.6792   -4.8875    0.0000 C   0  0  0  0  0  0  0  0  0  0  0  0
    2.7042   -2.3000    0.0000 C   0  0  0  0  0  0  0  0  0  0  0  0
    4.1292   -5.4917    0.0000 C   0  0  0  0  0  0  0  0  0  0  0  0
    2.6792    0.1833    0.0000 C   0  0  0  0  0  0  0  0  0  0  0  0
    3.4292   -2.7000    0.0000 C   0  0  0  0  0  0  0  0  0  0  0  0
    6.9792   -2.7375    0.0000 C   0  0  0  0  0  0  0  0  0  0  0  0
    3.6292   -3.9250    0.0000 C   0  0  0  0  0  0  0  0  0  0  0  0
    3.0667   -4.5375    0.0000 C   0  0  0  0  0  0  0  0  0  0  0  0
    4.8375   -1.0500    0.0000 C   0  0  0  0  0  0  0  0  0  0  0  0
    5.5417    0.2083    0.0000 C   0  0  0  0  0  0  0  0  0  0  0  0
    3.3292   -5.3167    0.0000 C   0  0  0  0  0  0  0  0  0  0  0  0
    4.3792   -6.2875    0.0000 C   0  0  0  0  0  0  0  0  0  0  0  0
    7.5042   -3.3750    0.0000 C   0  0  0  0  0  0  0  0  0  0  0  0
    6.2667   -0.2000    0.0000 C   0  0  0  0  0  0  0  0  0  0  0  0
    5.5625   -1.4542    0.0000 C   0  0  0  0  0  0  0  0  0  0  0  0
    6.2792   -1.0375    0.0000 C   0  0  0  0  0  0  0  0  0  0  0  0
  2  1  2  0
  3  1  1  0
  4  7  1  0
  5  4  1  0
  6  2  1  0
  7 11  1  0
  8  3  2  0
  9  2  1  0
 10  1  1  0
 11  9  2  0
 12 16  1  0
 13  5  2  0
 14  5  1  0
 15 10  1  0
 16 19  2  0
 17 15  2  0
 18  4  1  0
 19  9  1  0
 20  8  1  0
 21 10  2  0
 22 21  1  0
 23 14  2  0
 24 14  1  0
 25 22  2  0
 26 17  1  0
 27 20  1  0
 28 24  2  0
 29 23  1  0
 30 28  1  0
  6  8  1  0
 25 17  1  0
 12  7  2  0
 30 29  2  0
M  END

> <chembl_id>
CHEMBL372384

> <chembl_pref_name>
None

$$$$

     RDKit          2D

 30 33  0  0  0  0  0  0  0  0999 V2000
    5.0875   -1.9792    0.0000 N   0  0  0  0  0  0  0  0  0  0  0  0
    5.8000   -2.3875    0.0000 C   0  0  0  0  0  0  0  0  0  0  0  0
    5.7917   -3.2125    0.0000 C   0  0  0  0  0  0  0  0  0  0  0  0
    6.5042   -3.6250    0.0000 C   0  0  0  0  0  0  0  0  0  0  0  0
    4.3667   -2.3917    0.0000 C   0  0  0  0  0  0  0  0  0  0  0  0
    5.0792   -1.1542    0.0000 C   0  0  0  0  0  0  0  0  0  0  0  0
    4.3667   -3.2125    0.0000 N   0  0  0  0  0  0  0  0  0  0  0  0
    6.5042   -1.9792    0.0000 C   0  0  0  0  0  0  0  0  0  0  0  0
    7.2167   -2.3917    0.0000 C   0  0  0  0  0  0  0  0  0  0  0  0
    7.2167   -3.2167    0.0000 C   0  0  0  0  0  0  0  0  0  0  0  0
    6.5042   -4.4417    0.0000 C   0  0  0  0  0  0  0  0  0  0  0  0
    5.0792   -3.6292    0.0000 C   0  0  0  0  0  0  0  0  0  0  0  0
    7.9292   -1.9792    0.0000 C   0  0  0  0  0  0  0  0  0  0  0  0
    4.3667   -0.7417    0.0000 C   0  0  0  0  0  0  0  0  0  0  0  0
    5.8000   -0.7417    0.0000 C   0  0  0  0  0  0  0  0  0  0  0  0
    3.6542   -1.9750    0.0000 O   0  0  0  0  0  0  0  0  0  0  0  0
    7.2167   -4.8625    0.0000 C   0  0  0  0  0  0  0  0  0  0  0  0
    7.9375   -1.1500    0.0000 O   0  0  0  0  0  0  0  0  0  0  0  0
    8.6500   -2.3875    0.0000 O   0  0  0  0  0  0  0  0  0  0  0  0
    3.6542   -1.1542    0.0000 Cl  0  0  0  0  0  0  0  0  0  0  0  0
    6.5167   -1.1542    0.0000 Cl  0  0  0  0  0  0  0  0  0  0  0  0
    7.9292   -4.4417    0.0000 Cl  0  0  0  0  0  0  0  0  0  0  0  0
    5.7875   -4.8542    0.0000 C   0  0  0  0  0  0  0  0  0  0  0  0
    5.0792    0.4958    0.0000 C   0  0  0  0  0  0  0  0  0  0  0  0
    5.8000    0.0833    0.0000 C   0  0  0  0  0  0  0  0  0  0  0  0
    4.3667    0.0833    0.0000 C   0  0  0  0  0  0  0  0  0  0  0  0
    7.2167   -5.6792    0.0000 C   0  0  0  0  0  0  0  0  0  0  0  0
    8.6542   -3.2125    0.0000 C   0  0  0  0  0  0  0  0  0  0  0  0
    5.7792   -5.6792    0.0000 C   0  0  0  0  0  0  0  0  0  0  0  0
    6.4917   -6.1000    0.0000 C   0  0  0  0  0  0  0  0  0  0  0  0
  2  1  1  0
  3  2  2  0
  4  3  1  0
  5  1  1  0
  6  1  1  0
  7  5  1  0
  8  2  1  0
  9  8  2  0
 10  9  1  0
 11  4  1  0
 12  7  1  0
 13  9  1  0
 14  6  1  0
 15  6  2  0
 16  5  2  0
 17 11  1  0
 18 13  2  0
 19 13  1  0
 20 14  1  0
 21 15  1  0
 22 17  1  0
 23 11  2  0
 24 25  2  0
 25 15  1  0
 26 14  2  0
 27 17  2  0
 28 19  1  0
 29 23  1  0
 30 29  2  0
 26 24  1  0
  3 12  1  0
  4 10  2  0
 27 30  1  0
M  END

> <chembl_id>
CHEMBL94556

> <chembl_pref_name>
None

$$$$

     RDKit          2D

 24 25  0  0  0  0  0  0  0  0999 V2000
   -3.6263  -12.5662    0.0000 C   0  0  0  0  0  0  0  0  0  0  0  0
   -2.8089  -12.4759    0.0000 S   0  0  0  0  0  0  0  0  0  0  0  0
   -2.6439  -11.6770    0.0000 C   0  0  0  0  0  0  0  0  0  0  0  0
   -3.3605  -11.2645    0.0000 C   0  0  0  0  0  0  0  0  0  0  0  0
   -3.9681  -11.8253    0.0000 N   0  0  0  0  0  0  0  0  0  0  0  0
   -1.9397  -11.2641    0.0000 C   0  0  0  0  0  0  0  0  0  0  0  0
   -4.0417  -13.2850    0.0000 N   0  0  0  0  0  0  0  0  0  0  0  0
   -1.9404  -10.4413    0.0000 O   0  0  0  0  0  0  0  0  0  0  0  0
   -1.2289  -11.6679    0.0000 N   0  0  0  0  0  0  0  0  0  0  0  0
   -0.5080  -11.2699    0.0000 C   0  0  0  0  0  0  0  0  0  0  0  0
    0.1983  -11.6946    0.0000 C   0  0  0  0  0  0  0  0  0  0  0  0
    0.9181  -11.3032    0.0000 C   0  0  0  0  0  0  0  0  0  0  0  0
    0.9351  -10.4696    0.0000 C   0  0  0  0  0  0  0  0  0  0  0  0
    0.2304  -10.0471    0.0000 C   0  0  0  0  0  0  0  0  0  0  0  0
   -0.4905  -10.4496    0.0000 C   0  0  0  0  0  0  0  0  0  0  0  0
    0.1804  -12.5194    0.0000 C   0  0  0  0  0  0  0  0  0  0  0  0
    0.2431   -9.2222    0.0000 C   0  0  0  0  0  0  0  0  0  0  0  0
    0.9638   -8.8207    0.0000 N   0  0  0  0  0  0  0  0  0  0  0  0
   -0.4650   -8.7987    0.0000 O   0  0  0  0  0  0  0  0  0  0  0  0
   -3.4522  -10.4446    0.0000 C   0  0  0  0  0  0  0  0  0  0  0  0
   -4.8667  -13.2846    0.0000 C   0  0  0  0  0  0  0  0  0  0  0  0
   -5.2795  -13.9989    0.0000 C   0  0  0  0  0  0  0  0  0  0  0  0
    1.6718   -9.2442    0.0000 C   0  0  0  0  0  0  0  0  0  0  0  0
    2.3926   -8.8427    0.0000 C   0  0  0  0  0  0  0  0  0  0  0  0
 11 12  1  0
  3  6  1  0
 12 13  2  0
 13 14  1  0
  1  7  1  0
 14 15  2  0
 15 10  1  0
  2  3  1  0
 11 16  1  0
  6  8  2  0
 14 17  1  0
  3  4  2  0
 17 18  1  0
  6  9  1  0
 17 19  2  0
  4  5  1  0
  4 20  1  0
  9 10  1  0
  7 21  1  0
  5  1  2  0
 21 22  1  0
 10 11  2  0
 18 23  1  0
  1  2  1  0
 23 24  1  0
M  END

> <chembl_id>
CHEMBL402943

> <chembl_pref_name>
None

$$$$

     RDKit          2D

 33 36  0  0  0  0  0  0  0  0999 V2000
   13.9427   -6.1328    0.0000 C   0  0  0  0  0  0  0  0  0  0  0  0
   14.6572   -5.7203    0.0000 S   0  0  0  0  0  0  0  0  0  0  0  0
   15.3677   -5.2995    0.0000 O   0  0  0  0  0  0  0  0  0  0  0  0
   15.0737   -6.4325    0.0000 O   0  0  0  0  0  0  0  0  0  0  0  0
   14.2400   -5.0086    0.0000 O   0  0  0  0  0  0  0  0  0  0  0  0
    8.6776   -4.5451    0.0000 C   0  0  0  0  0  0  0  0  0  0  0  0
    9.1614   -5.2111    0.0000 N   0  0  0  0  0  0  0  0  0  0  0  0
    9.9436   -4.9556    0.0000 C   0  0  0  0  0  0  0  0  0  0  0  0
    9.9415   -4.1289    0.0000 C   0  0  0  0  0  0  0  0  0  0  0  0
    9.1595   -3.8716    0.0000 N   0  0  0  0  0  0  0  0  0  0  0  0
    7.8461   -4.5847    0.0000 C   0  0  0  0  0  0  0  0  0  0  0  0
    7.4033   -3.8867    0.0000 C   0  0  0  0  0  0  0  0  0  0  0  0
    6.5799   -3.9168    0.0000 C   0  0  0  0  0  0  0  0  0  0  0  0
    6.1984   -4.6484    0.0000 C   0  0  0  0  0  0  0  0  0  0  0  0
    6.6381   -5.3472    0.0000 C   0  0  0  0  0  0  0  0  0  0  0  0
    7.4642   -5.3135    0.0000 C   0  0  0  0  0  0  0  0  0  0  0  0
    7.7805   -3.1394    0.0000 F   0  0  0  0  0  0  0  0  0  0  0  0
    7.9097   -6.0171    0.0000 F   0  0  0  0  0  0  0  0  0  0  0  0
   10.6553   -5.3635    0.0000 C   0  0  0  0  0  0  0  0  0  0  0  0
   10.6553   -6.1887    0.0000 C   0  0  0  0  0  0  0  0  0  0  0  0
   11.3690   -6.5996    0.0000 C   0  0  0  0  0  0  0  0  0  0  0  0
   12.0830   -6.1862    0.0000 C   0  0  0  0  0  0  0  0  0  0  0  0
   12.0790   -5.3579    0.0000 C   0  0  0  0  0  0  0  0  0  0  0  0
   11.3648   -4.9508    0.0000 C   0  0  0  0  0  0  0  0  0  0  0  0
   10.6510   -3.7134    0.0000 C   0  0  0  0  0  0  0  0  0  0  0  0
   11.3664   -4.1249    0.0000 C   0  0  0  0  0  0  0  0  0  0  0  0
   11.3560   -2.4766    0.0000 C   0  0  0  0  0  0  0  0  0  0  0  0
   10.6470   -2.8926    0.0000 C   0  0  0  0  0  0  0  0  0  0  0  0
   12.0761   -2.8861    0.0000 C   0  0  0  0  0  0  0  0  0  0  0  0
   12.0799   -3.7105    0.0000 C   0  0  0  0  0  0  0  0  0  0  0  0
   12.8651   -3.9616    0.0000 N   0  0  0  0  0  0  0  0  0  0  0  0
   13.3466   -3.2925    0.0000 C   0  0  0  0  0  0  0  0  0  0  0  0
   12.8589   -2.6279    0.0000 N   0  0  0  0  0  0  0  0  0  0  0  0
  1  2  1  0
  2  3  1  0
  2  4  2  0
  2  5  2  0
 11 12  2  0
  7  8  1  0
 19 20  2  0
 12 13  1  0
 20 21  1  0
  8  9  2  0
 21 22  2  0
 13 14  2  0
 22 23  1  0
  9 10  1  0
 23 24  2  0
 24 19  1  0
  8 19  1  0
 14 15  1  0
 10  6  1  0
 25 26  2  0
 26 30  1  0
 15 16  2  0
 29 27  1  0
 16 11  1  0
 27 28  2  0
 28 25  1  0
  9 25  1  0
 29 30  2  0
  6 11  1  0
  6  7  2  0
 12 17  1  0
 16 18  1  0
 30 31  1  0
 31 32  1  0
 32 33  2  0
 33 29  1  0
M  END

> <chembl_id>
CHEMBL272535

> <chembl_pref_name>
None

$$$$

     RDKit          2D

 31 34  0  0  0  0  0  0  0  0999 V2000
   -2.1008   -9.6205    0.0000 C   0  0  0  0  0  0  0  0  0  0  0  0
   -2.1020  -10.4481    0.0000 C   0  0  0  0  0  0  0  0  0  0  0  0
   -1.3891  -10.8609    0.0000 C   0  0  0  0  0  0  0  0  0  0  0  0
   -0.6697  -10.4476    0.0000 C   0  0  0  0  0  0  0  0  0  0  0  0
   -0.6729   -9.6165    0.0000 C   0  0  0  0  0  0  0  0  0  0  0  0
   -1.3911   -9.2076    0.0000 C   0  0  0  0  0  0  0  0  0  0  0  0
   -1.3949   -8.3826    0.0000 C   0  0  0  0  0  0  0  0  0  0  0  0
   -1.3904  -11.6860    0.0000 N   0  0  0  0  0  0  0  0  0  0  0  0
   -0.6766  -12.0997    0.0000 C   0  0  0  0  0  0  0  0  0  0  0  0
   -0.6780  -12.9247    0.0000 C   0  0  0  0  0  0  0  0  0  0  0  0
   -1.3924  -13.3320    0.0000 C   0  0  0  0  0  0  0  0  0  0  0  0
   -1.3940  -14.1562    0.0000 C   0  0  0  0  0  0  0  0  0  0  0  0
   -0.6797  -14.5707    0.0000 C   0  0  0  0  0  0  0  0  0  0  0  0
    0.0378  -14.1550    0.0000 C   0  0  0  0  0  0  0  0  0  0  0  0
    0.0360  -13.3321    0.0000 C   0  0  0  0  0  0  0  0  0  0  0  0
   -2.1095  -14.5672    0.0000 C   0  0  0  0  0  0  0  0  0  0  0  0
   -2.8279  -14.9739    0.0000 F   0  0  0  0  0  0  0  0  0  0  0  0
   -1.7007  -15.2839    0.0000 F   0  0  0  0  0  0  0  0  0  0  0  0
   -2.5176  -13.8502    0.0000 F   0  0  0  0  0  0  0  0  0  0  0  0
   -2.8156   -9.2085    0.0000 C   0  0  0  0  0  0  0  0  0  0  0  0
   -2.8148   -8.3788    0.0000 C   0  0  0  0  0  0  0  0  0  0  0  0
   -4.2405   -9.2094    0.0000 C   0  0  0  0  0  0  0  0  0  0  0  0
   -3.5260   -9.6175    0.0000 C   0  0  0  0  0  0  0  0  0  0  0  0
   -4.2438   -8.3802    0.0000 C   0  0  0  0  0  0  0  0  0  0  0  0
   -3.5297   -7.9710    0.0000 C   0  0  0  0  0  0  0  0  0  0  0  0
   -3.5280   -7.1497    0.0000 C   0  0  0  0  0  0  0  0  0  0  0  0
   -4.2397   -6.7368    0.0000 N   0  0  0  0  0  0  0  0  0  0  0  0
   -4.9546   -7.1509    0.0000 C   0  0  0  0  0  0  0  0  0  0  0  0
   -4.9528   -7.9708    0.0000 N   0  0  0  0  0  0  0  0  0  0  0  0
   -5.6698   -6.7398    0.0000 N   0  0  0  0  0  0  0  0  0  0  0  0
    0.0385  -11.6884    0.0000 O   0  0  0  0  0  0  0  0  0  0  0  0
 15 10  1  0
  3  4  2  0
 12 16  1  0
  3  8  1  0
 16 17  1  0
 16 18  1  0
  8  9  1  0
 16 19  1  0
  4  5  1  0
  1 20  1  0
  9 10  1  0
 20 21  2  0
 21 25  1  0
  2  3  1  0
 24 22  1  0
 10 11  2  0
 22 23  2  0
 23 20  1  0
  5  6  2  0
 11 12  1  0
 24 25  1  0
  6  1  1  0
 25 26  2  0
 12 13  2  0
 26 27  1  0
  1  2  2  0
 27 28  2  0
 13 14  1  0
 28 29  1  0
 29 24  2  0
  6  7  1  0
 28 30  1  0
 14 15  2  0
  9 31  2  0
M  END

> <chembl_id>
CHEMBL429582

> <chembl_pref_name>
None

$$$$

     RDKit          2D

 39 43  0  0  0  0  0  0  0  0999 V2000
    8.7361  -12.7166    0.0000 N   0  0  0  0  0  0  0  0  0  0  0  0
    8.7349  -13.5440    0.0000 C   0  0  0  0  0  0  0  0  0  0  0  0
    9.4497  -13.9569    0.0000 N   0  0  0  0  0  0  0  0  0  0  0  0
    9.4479  -12.3039    0.0000 C   0  0  0  0  0  0  0  0  0  0  0  0
   10.1633  -12.7130    0.0000 C   0  0  0  0  0  0  0  0  0  0  0  0
   10.1641  -13.5398    0.0000 C   0  0  0  0  0  0  0  0  0  0  0  0
   10.8794  -13.9508    0.0000 C   0  0  0  0  0  0  0  0  0  0  0  0
   11.5944  -13.5360    0.0000 C   0  0  0  0  0  0  0  0  0  0  0  0
   11.5896  -12.7061    0.0000 C   0  0  0  0  0  0  0  0  0  0  0  0
   10.8737  -12.2988    0.0000 C   0  0  0  0  0  0  0  0  0  0  0  0
   12.3016  -12.2892    0.0000 C   0  0  0  0  0  0  0  0  0  0  0  0
   13.0158  -12.7008    0.0000 C   0  0  0  0  0  0  0  0  0  0  0  0
   13.7273  -12.2847    0.0000 C   0  0  0  0  0  0  0  0  0  0  0  0
   13.7227  -11.4588    0.0000 C   0  0  0  0  0  0  0  0  0  0  0  0
   13.0007  -11.0509    0.0000 C   0  0  0  0  0  0  0  0  0  0  0  0
   12.2922  -11.4694    0.0000 C   0  0  0  0  0  0  0  0  0  0  0  0
   11.5734  -11.0645    0.0000 C   0  0  0  0  0  0  0  0  0  0  0  0
    8.0201  -13.9559    0.0000 N   0  0  0  0  0  0  0  0  0  0  0  0
   14.4441  -12.6932    0.0000 C   0  0  0  0  0  0  0  0  0  0  0  0
   14.4487  -13.5182    0.0000 O   0  0  0  0  0  0  0  0  0  0  0  0
   15.1562  -12.2767    0.0000 N   0  0  0  0  0  0  0  0  0  0  0  0
   15.8730  -12.6852    0.0000 C   0  0  0  0  0  0  0  0  0  0  0  0
   15.8727  -13.5094    0.0000 C   0  0  0  0  0  0  0  0  0  0  0  0
   16.5886  -13.9178    0.0000 C   0  0  0  0  0  0  0  0  0  0  0  0
   17.3017  -13.5013    0.0000 C   0  0  0  0  0  0  0  0  0  0  0  0
   17.2944  -12.6720    0.0000 C   0  0  0  0  0  0  0  0  0  0  0  0
   16.5780  -12.2674    0.0000 C   0  0  0  0  0  0  0  0  0  0  0  0
   16.5833  -14.7417    0.0000 C   0  0  0  0  0  0  0  0  0  0  0  0
   16.5792  -15.5667    0.0000 F   0  0  0  0  0  0  0  0  0  0  0  0
   15.7583  -14.7369    0.0000 F   0  0  0  0  0  0  0  0  0  0  0  0
   17.4083  -14.7452    0.0000 F   0  0  0  0  0  0  0  0  0  0  0  0
    7.3060  -13.5429    0.0000 C   0  0  0  0  0  0  0  0  0  0  0  0
    6.5912  -13.9548    0.0000 C   0  0  0  0  0  0  0  0  0  0  0  0
    5.8770  -13.5417    0.0000 N   0  0  0  0  0  0  0  0  0  0  0  0
    5.8819  -12.7159    0.0000 C   0  0  0  0  0  0  0  0  0  0  0  0
    5.1719  -12.3029    0.0000 C   0  0  0  0  0  0  0  0  0  0  0  0
    4.4546  -12.7113    0.0000 O   0  0  0  0  0  0  0  0  0  0  0  0
    4.4520  -13.5373    0.0000 C   0  0  0  0  0  0  0  0  0  0  0  0
    5.1666  -13.9548    0.0000 C   0  0  0  0  0  0  0  0  0  0  0  0
  8  9  2  0
 13 19  1  0
  4  1  2  0
 19 20  2  0
  9 10  1  0
 19 21  1  0
 10  5  2  0
 21 22  1  0
 22 23  2  0
  9 11  1  0
 23 24  1  0
  2  3  2  0
 24 25  2  0
 11 12  2  0
 25 26  1  0
  5  6  1  0
 26 27  2  0
 27 22  1  0
 12 13  1  0
 24 28  1  0
  3  6  1  0
 28 29  1  0
 13 14  2  0
 28 30  1  0
  6  7  2  0
 28 31  1  0
 14 15  1  0
 18 32  1  0
  1  2  1  0
 32 33  1  0
 15 16  2  0
 33 34  1  0
 34 35  1  0
 16 11  1  0
  7  8  1  0
 16 17  1  0
  5  4  1  0
  2 18  1  0
 34 39  1  0
 35 36  1  0
 36 37  1  0
 37 38  1  0
 38 39  1  0
M  END

> <chembl_id>
CHEMBL215943

> <chembl_pref_name>
None

$$$$

     RDKit          2D

 38 42  0  0  0  0  0  0  0  0999 V2000
   -3.3465  -28.0777    0.0000 N   0  0  0  0  0  0  0  0  0  0  0  0
   -4.1715  -28.0765    0.0000 C   0  0  0  0  0  0  0  0  0  0  0  0
   -4.5851  -28.7904    0.0000 C   0  0  0  0  0  0  0  0  0  0  0  0
   -2.9330  -27.3638    0.0000 C   0  0  0  0  0  0  0  0  0  0  0  0
   -0.1169  -28.1944    0.0000 N   0  0  0  0  0  0  0  0  0  0  0  0
    0.5995  -27.7810    0.0000 C   0  0  0  0  0  0  0  0  0  0  0  0
    0.5966  -26.9505    0.0000 N   0  0  0  0  0  0  0  0  0  0  0  0
   -0.1188  -26.5414    0.0000 C   0  0  0  0  0  0  0  0  0  0  0  0
   -0.8318  -27.7815    0.0000 N   0  0  0  0  0  0  0  0  0  0  0  0
   -0.8305  -26.9526    0.0000 C   0  0  0  0  0  0  0  0  0  0  0  0
   -1.6185  -26.6952    0.0000 C   0  0  0  0  0  0  0  0  0  0  0  0
   -2.1068  -27.3651    0.0000 C   0  0  0  0  0  0  0  0  0  0  0  0
   -1.6205  -28.0364    0.0000 C   0  0  0  0  0  0  0  0  0  0  0  0
   -1.8722  -25.9102    0.0000 C   0  0  0  0  0  0  0  0  0  0  0  0
   -0.1206  -25.7164    0.0000 N   0  0  0  0  0  0  0  0  0  0  0  0
    0.5930  -25.3023    0.0000 C   0  0  0  0  0  0  0  0  0  0  0  0
    1.3053  -25.7162    0.0000 C   0  0  0  0  0  0  0  0  0  0  0  0
    2.0184  -25.3028    0.0000 C   0  0  0  0  0  0  0  0  0  0  0  0
    2.0170  -24.4769    0.0000 C   0  0  0  0  0  0  0  0  0  0  0  0
    1.2966  -24.0662    0.0000 C   0  0  0  0  0  0  0  0  0  0  0  0
    0.5865  -24.4819    0.0000 C   0  0  0  0  0  0  0  0  0  0  0  0
   -0.1309  -24.0744    0.0000 C   0  0  0  0  0  0  0  0  0  0  0  0
    2.7335  -25.7141    0.0000 N   0  0  0  0  0  0  0  0  0  0  0  0
    3.4473  -25.3004    0.0000 C   0  0  0  0  0  0  0  0  0  0  0  0
    4.1625  -25.7116    0.0000 C   0  0  0  0  0  0  0  0  0  0  0  0
    3.4459  -24.4754    0.0000 O   0  0  0  0  0  0  0  0  0  0  0  0
    4.1611  -26.5344    0.0000 C   0  0  0  0  0  0  0  0  0  0  0  0
    4.8755  -26.9456    0.0000 C   0  0  0  0  0  0  0  0  0  0  0  0
    5.5902  -26.5318    0.0000 C   0  0  0  0  0  0  0  0  0  0  0  0
    5.5861  -25.7026    0.0000 C   0  0  0  0  0  0  0  0  0  0  0  0
    4.8712  -25.2951    0.0000 C   0  0  0  0  0  0  0  0  0  0  0  0
   -3.3444  -26.6487    0.0000 O   0  0  0  0  0  0  0  0  0  0  0  0
    6.2984  -25.2863    0.0000 N   0  0  0  0  0  0  0  0  0  0  0  0
    7.0525  -25.6137    0.0000 C   0  0  0  0  0  0  0  0  0  0  0  0
    7.6013  -24.9978    0.0000 C   0  0  0  0  0  0  0  0  0  0  0  0
    7.1851  -24.2854    0.0000 C   0  0  0  0  0  0  0  0  0  0  0  0
    6.3791  -24.4613    0.0000 C   0  0  0  0  0  0  0  0  0  0  0  0
    5.7625  -23.9132    0.0000 O   0  0  0  0  0  0  0  0  0  0  0  0
 18 19  2  0
  9  5  1  0
 19 20  1  0
  2  3  1  0
 20 21  2  0
 21 16  1  0
  5  6  2  0
 21 22  1  0
  2  1  1  0
 18 23  1  0
 10 11  2  0
 23 24  1  0
 11 12  1  0
 24 25  1  0
 12 13  2  0
 24 26  2  0
 13  9  1  0
 25 27  2  0
  6  7  1  0
 27 28  1  0
 11 14  1  0
 28 29  2  0
  1  4  1  0
 29 30  1  0
  8 15  1  0
 30 31  2  0
 31 25  1  0
 12  4  1  0
  7  8  2  0
  4 32  2  0
 15 16  1  0
 30 33  1  0
 33 34  1  0
  8 10  1  0
 16 17  2  0
  9 10  1  0
 17 18  1  0
 34 35  1  0
 35 36  1  0
 36 37  1  0
 37 33  1  0
 37 38  2  0
M  END

> <chembl_id>
CHEMBL262866

> <chembl_pref_name>
None

$$$$

     RDKit          2D

 26 27  0  0  0  0  0  0  0  0999 V2000
   -1.8000    0.5083    0.0000 C   0  0  0  0  0  0  0  0  0  0  0  0
   -1.3208    0.1583    0.0000 C   0  0  0  0  0  0  0  0  0  0  0  0
   -2.2875    0.1583    0.0000 S   0  0  0  0  0  0  0  0  0  0  0  0
   -2.1000   -0.4167    0.0000 C   0  0  0  0  0  0  0  0  0  0  0  0
   -1.5000   -0.4167    0.0000 C   0  0  0  0  0  0  0  0  0  0  0  0
   -0.3000   -0.0625    0.0000 C   0  0  0  0  0  0  0  0  0  0  0  0
   -0.7458    0.3375    0.0000 N   0  0  0  0  0  0  0  0  0  0  0  0
   -1.8083    1.1083    0.0000 C   0  0  0  0  0  0  0  0  0  0  0  0
   -2.4583   -0.9042    0.0000 C   0  0  0  0  0  0  0  0  0  0  0  0
    0.2667    0.1208    0.0000 N   0  0  0  0  0  0  0  0  0  0  0  0
   -0.4250   -0.6500    0.0000 O   0  0  0  0  0  0  0  0  0  0  0  0
   -2.3208    1.4083    0.0000 O   0  0  0  0  0  0  0  0  0  0  0  0
    0.7167   -0.2792    0.0000 C   0  0  0  0  0  0  0  0  0  0  0  0
   -1.2833    1.4083    0.0000 O   0  0  0  0  0  0  0  0  0  0  0  0
    1.6042   -1.0792    0.0000 C   0  0  0  0  0  0  0  0  0  0  0  0
    1.2792   -0.0917    0.0000 C   0  0  0  0  0  0  0  0  0  0  0  0
    0.5875   -0.8667    0.0000 C   0  0  0  0  0  0  0  0  0  0  0  0
    1.0292   -1.2667    0.0000 C   0  0  0  0  0  0  0  0  0  0  0  0
    1.7292   -0.4917    0.0000 C   0  0  0  0  0  0  0  0  0  0  0  0
   -3.0500   -0.8417    0.0000 C   0  0  0  0  0  0  0  0  0  0  0  0
   -2.2125   -1.4542    0.0000 C   0  0  0  0  0  0  0  0  0  0  0  0
   -2.8833   -1.3250    0.0000 C   0  0  0  0  0  0  0  0  0  0  0  0
   -1.2833    2.0083    0.0000 C   0  0  0  0  0  0  0  0  0  0  0  0
    2.0500   -1.4792    0.0000 C   0  0  0  0  0  0  0  0  0  0  0  0
   -0.7625    2.3083    0.0000 C   0  0  0  0  0  0  0  0  0  0  0  0
   -0.7625    2.9083    0.0000 C   0  0  0  0  0  0  0  0  0  0  0  0
  2  1  2  0
  3  1  1  0
  4  3  1  0
  5  2  1  0
  6  7  1  0
  7  2  1  0
  8  1  1  0
  9  4  1  0
 10  6  1  0
 11  6  2  0
 12  8  2  0
 13 10  1  0
 14  8  1  0
 15 18  2  0
 16 13  1  0
 17 13  2  0
 18 17  1  0
 19 16  2  0
 20  9  1  0
 21  9  1  0
 22  9  1  0
 23 14  1  0
 24 15  1  0
 25 23  1  0
 26 25  1  0
  4  5  2  0
 19 15  1  0
M  END

> <chembl_id>
CHEMBL278275

> <chembl_pref_name>
None

$$$$

     RDKit          2D

 27 30  0  0  0  0  0  0  0  0999 V2000
    2.1434   -1.2375    0.0000 C   0  0  0  0  0  0  0  0  0  0  0  0
    1.4289   -1.6500    0.0000 C   0  0  0  0  0  0  0  0  0  0  0  0
    1.4289   -2.4750    0.0000 C   0  0  0  0  0  0  0  0  0  0  0  0
    0.7145   -2.8875    0.0000 C   0  0  0  0  0  0  0  0  0  0  0  0
    0.0000   -2.4750    0.0000 C   0  0  0  0  0  0  0  0  0  0  0  0
   -0.7145   -2.8875    0.0000 N   0  0  0  0  0  0  0  0  0  0  0  0
   -0.7145   -3.7125    0.0000 C   0  0  0  0  0  0  0  0  0  0  0  0
    0.0000   -4.1250    0.0000 O   0  0  0  0  0  0  0  0  0  0  0  0
   -1.4289   -4.1250    0.0000 C   0  0  0  0  0  0  0  0  0  0  0  0
   -1.4289   -4.9500    0.0000 C   0  0  0  0  0  0  0  0  0  0  0  0
   -1.0164   -5.6645    0.0000 C   0  0  0  0  0  0  0  0  0  0  0  0
   -1.8414   -5.6645    0.0000 C   0  0  0  0  0  0  0  0  0  0  0  0
    0.0000   -1.6500    0.0000 C   0  0  0  0  0  0  0  0  0  0  0  0
    0.7145   -1.2375    0.0000 C   0  0  0  0  0  0  0  0  0  0  0  0
    0.7145   -0.4125    0.0000 C   0  0  0  0  0  0  0  0  0  0  0  0
    0.0000    0.0000    0.0000 C   0  0  0  0  0  0  0  0  0  0  0  0
    0.0000    0.8250    0.0000 C   0  0  0  0  0  0  0  0  0  0  0  0
    0.7145    1.2375    0.0000 C   0  0  0  0  0  0  0  0  0  0  0  0
    1.4289    0.8250    0.0000 C   0  0  0  0  0  0  0  0  0  0  0  0
    1.4289    0.0000    0.0000 C   0  0  0  0  0  0  0  0  0  0  0  0
    0.7145    2.0625    0.0000 C   0  0  0  0  0  0  0  0  0  0  0  0
    0.0000    2.4750    0.0000 O   0  0  0  0  0  0  0  0  0  0  0  0
    1.4289    2.4750    0.0000 N   0  0  0  0  0  0  0  0  0  0  0  0
    1.4289    3.3000    0.0000 C   0  0  0  0  0  0  0  0  0  0  0  0
    2.1434    3.7125    0.0000 C   0  0  0  0  0  0  0  0  0  0  0  0
    2.5559    4.4270    0.0000 C   0  0  0  0  0  0  0  0  0  0  0  0
    2.9684    3.7125    0.0000 C   0  0  0  0  0  0  0  0  0  0  0  0
  1  2  1  0
  2  3  2  0
  3  4  1  0
  4  5  2  0
  5  6  1  0
  6  7  1  0
  7  8  2  0
  7  9  1  0
  9 10  1  0
 10 11  1  0
 11 12  1  0
 10 12  1  0
  5 13  1  0
 13 14  2  0
  2 14  1  0
 14 15  1  0
 15 16  2  0
 16 17  1  0
 17 18  2  0
 18 19  1  0
 19 20  2  0
 15 20  1  0
 18 21  1  0
 21 22  2  0
 21 23  1  0
 23 24  1  0
 24 25  1  0
 25 26  1  0
 26 27  1  0
 25 27  1  0
M  END

> <chembl_id>
CHEMBL516908

> <chembl_pref_name>
GW796920X

$$$$

     RDKit          2D

 22 25  0  0  0  0  0  0  0  0999 V2000
    0.2308   -2.5159    0.0000 N   0  0  0  0  0  0  0  0  0  0  0  0
    0.4875   -3.3042    0.0000 N   0  0  0  0  0  0  0  0  0  0  0  0
    1.3166   -3.3042    0.0000 C   0  0  0  0  0  0  0  0  0  0  0  0
    0.9041   -2.0292    0.0000 C   0  0  0  0  0  0  0  0  0  0  0  0
    1.5720   -2.5161    0.0000 N   0  0  0  0  0  0  0  0  0  0  0  0
    2.3254   -2.1810    0.0000 C   0  0  0  0  0  0  0  0  0  0  0  0
    2.4123   -1.3594    0.0000 C   0  0  0  0  0  0  0  0  0  0  0  0
    1.7396   -0.8738    0.0000 C   0  0  0  0  0  0  0  0  0  0  0  0
    0.9888   -1.2115    0.0000 C   0  0  0  0  0  0  0  0  0  0  0  0
    3.1672   -1.0208    0.0000 C   0  0  0  0  0  0  0  0  0  0  0  0
    3.8818   -1.4336    0.0000 O   0  0  0  0  0  0  0  0  0  0  0  0
    4.4950   -0.8803    0.0000 C   0  0  0  0  0  0  0  0  0  0  0  0
    4.1568   -0.1265    0.0000 N   0  0  0  0  0  0  0  0  0  0  0  0
    3.3358   -0.2166    0.0000 C   0  0  0  0  0  0  0  0  0  0  0  0
    1.8018   -3.9714    0.0000 C   0  0  0  0  0  0  0  0  0  0  0  0
    2.6223   -3.8849    0.0000 C   0  0  0  0  0  0  0  0  0  0  0  0
    2.7846    0.3920    0.0000 C   0  0  0  0  0  0  0  0  0  0  0  0
    3.0383    1.1782    0.0000 C   0  0  0  0  0  0  0  0  0  0  0  0
    2.4848    1.7889    0.0000 C   0  0  0  0  0  0  0  0  0  0  0  0
    1.6775    1.6147    0.0000 C   0  0  0  0  0  0  0  0  0  0  0  0
    1.4267    0.8243    0.0000 C   0  0  0  0  0  0  0  0  0  0  0  0
    1.9819    0.2169    0.0000 C   0  0  0  0  0  0  0  0  0  0  0  0
  4  5  1  0
  4  1  2  0
  5  6  1  0
  2  3  2  0
 10 11  1  0
 12 13  2  0
 13 14  1  0
 14 10  2  0
  7 10  1  0
  6  7  2  0
  3 15  1  0
  3  5  1  0
 15 16  1  0
  7  8  1  0
  1  2  1  0
 17 18  2  0
  8  9  2  0
 18 19  1  0
  9  4  1  0
 19 20  2  0
 11 12  1  0
 20 21  1  0
 21 22  2  0
 22 17  1  0
 14 17  1  0
M  END

> <chembl_id>
CHEMBL215680

> <chembl_pref_name>
None

$$$$

     RDKit          2D

 30 33  0  0  0  0  0  0  0  0999 V2000
    0.9248   -4.3923    0.0000 C   0  0  0  0  0  0  0  0  0  0  0  0
    0.4819   -5.0912    0.0000 C   0  0  0  0  0  0  0  0  0  0  0  0
    0.8658   -5.8220    0.0000 C   0  0  0  0  0  0  0  0  0  0  0  0
    1.6922   -5.8552    0.0000 C   0  0  0  0  0  0  0  0  0  0  0  0
    2.1334   -5.1515    0.0000 C   0  0  0  0  0  0  0  0  0  0  0  0
    1.7470   -4.4235    0.0000 C   0  0  0  0  0  0  0  0  0  0  0  0
    2.9545   -5.1806    0.0000 C   0  0  0  0  0  0  0  0  0  0  0  0
    3.3404   -5.9111    0.0000 C   0  0  0  0  0  0  0  0  0  0  0  0
    4.1641   -5.9412    0.0000 C   0  0  0  0  0  0  0  0  0  0  0  0
    4.6029   -5.2415    0.0000 C   0  0  0  0  0  0  0  0  0  0  0  0
    4.2120   -4.5101    0.0000 C   0  0  0  0  0  0  0  0  0  0  0  0
    3.3896   -4.4837    0.0000 C   0  0  0  0  0  0  0  0  0  0  0  0
    3.0011   -3.7559    0.0000 C   0  0  0  0  0  0  0  0  0  0  0  0
   -0.3424   -5.0577    0.0000 C   0  0  0  0  0  0  0  0  0  0  0  0
   -0.7256   -4.3271    0.0000 O   0  0  0  0  0  0  0  0  0  0  0  0
   -0.7835   -5.7548    0.0000 N   0  0  0  0  0  0  0  0  0  0  0  0
   -1.6079   -5.7214    0.0000 C   0  0  0  0  0  0  0  0  0  0  0  0
    4.5502   -6.6702    0.0000 C   0  0  0  0  0  0  0  0  0  0  0  0
    4.1119   -7.3692    0.0000 O   0  0  0  0  0  0  0  0  0  0  0  0
    5.3746   -6.7003    0.0000 N   0  0  0  0  0  0  0  0  0  0  0  0
    5.7608   -7.4294    0.0000 C   0  0  0  0  0  0  0  0  0  0  0  0
    5.7310   -8.2512    0.0000 C   0  0  0  0  0  0  0  0  0  0  0  0
    6.4601   -7.8650    0.0000 C   0  0  0  0  0  0  0  0  0  0  0  0
   -1.9884   -4.9888    0.0000 C   0  0  0  0  0  0  0  0  0  0  0  0
   -2.8120   -4.9550    0.0000 C   0  0  0  0  0  0  0  0  0  0  0  0
   -3.2540   -5.6526    0.0000 C   0  0  0  0  0  0  0  0  0  0  0  0
   -2.8665   -6.3858    0.0000 C   0  0  0  0  0  0  0  0  0  0  0  0
   -2.0441   -6.4160    0.0000 C   0  0  0  0  0  0  0  0  0  0  0  0
   -4.0783   -5.6202    0.0000 O   0  0  0  0  0  0  0  0  0  0  0  0
   -4.4625   -4.8901    0.0000 C   0  0  0  0  0  0  0  0  0  0  0  0
  3  4  2  0
 14 15  2  0
  7  8  2  0
 14 16  1  0
 16 17  1  0
  8  9  1  0
  9 18  1  0
  4  5  1  0
 18 19  2  0
  9 10  2  0
 18 20  1  0
  2  3  1  0
 20 21  1  0
 22 21  1  0
 23 22  1  0
 21 23  1  0
 10 11  1  0
  5  6  2  0
 11 12  2  0
 17 24  2  0
 12  7  1  0
 24 25  1  0
  5  7  1  0
 25 26  2  0
  6  1  1  0
 26 27  1  0
 12 13  1  0
 27 28  2  0
 28 17  1  0
  1  2  2  0
 26 29  1  0
  2 14  1  0
 29 30  1  0
M  END

> <chembl_id>
CHEMBL478819

> <chembl_pref_name>
None

$$$$

     RDKit          2D

 24 25  0  0  0  0  0  0  0  0999 V2000
    9.4944  -16.9833    0.0000 C   0  0  0  0  0  0  0  0  0  0  0  0
    9.4932  -17.8107    0.0000 C   0  0  0  0  0  0  0  0  0  0  0  0
   10.2081  -18.2235    0.0000 C   0  0  0  0  0  0  0  0  0  0  0  0
   10.9245  -17.8102    0.0000 C   0  0  0  0  0  0  0  0  0  0  0  0
   10.9216  -16.9797    0.0000 C   0  0  0  0  0  0  0  0  0  0  0  0
   10.2063  -16.5705    0.0000 C   0  0  0  0  0  0  0  0  0  0  0  0
    8.7798  -16.5710    0.0000 N   0  0  0  0  0  0  0  0  0  0  0  0
    8.0655  -16.9836    0.0000 C   0  0  0  0  0  0  0  0  0  0  0  0
    7.3509  -16.5713    0.0000 N   0  0  0  0  0  0  0  0  0  0  0  0
    8.0657  -17.8086    0.0000 O   0  0  0  0  0  0  0  0  0  0  0  0
    6.6365  -16.9840    0.0000 C   0  0  0  0  0  0  0  0  0  0  0  0
    5.8834  -16.6446    0.0000 C   0  0  0  0  0  0  0  0  0  0  0  0
    5.3315  -17.2579    0.0000 S   0  0  0  0  0  0  0  0  0  0  0  0
    5.7442  -17.9723    0.0000 C   0  0  0  0  0  0  0  0  0  0  0  0
    6.5511  -17.8005    0.0000 C   0  0  0  0  0  0  0  0  0  0  0  0
    5.7144  -15.8343    0.0000 C   0  0  0  0  0  0  0  0  0  0  0  0
    6.3287  -15.2836    0.0000 O   0  0  0  0  0  0  0  0  0  0  0  0
    4.9303  -15.5777    0.0000 O   0  0  0  0  0  0  0  0  0  0  0  0
    7.1128  -15.5402    0.0000 C   0  0  0  0  0  0  0  0  0  0  0  0
    5.4089  -18.7261    0.0000 C   0  0  0  0  0  0  0  0  0  0  0  0
    4.9917  -19.4375    0.0000 C   0  0  0  0  0  0  0  0  0  0  0  0
    6.1428  -19.1030    0.0000 C   0  0  0  0  0  0  0  0  0  0  0  0
    4.6749  -18.3494    0.0000 C   0  0  0  0  0  0  0  0  0  0  0  0
   11.6396  -18.2216    0.0000 O   0  0  0  0  0  0  0  0  0  0  0  0
  5  6  2  0
  6  1  1  0
  1  2  2  0
  1  7  1  0
 12 13  1  0
 13 14  1  0
 14 15  2  0
 15 11  1  0
  3  4  2  0
  7  8  1  0
 16 17  1  0
 16 18  2  0
 12 16  1  0
  8  9  1  0
 17 19  1  0
  4  5  1  0
 14 20  1  0
  8 10  2  0
 20 21  1  0
  2  3  1  0
 20 22  1  0
  9 11  1  0
 20 23  1  0
 11 12  2  0
  4 24  1  0
M  END

> <chembl_id>
CHEMBL279560

> <chembl_pref_name>
None

$$$$
